REMARK  8 active torsions:
REMARK  status: ('A' for Active; 'I' for Inactive)
REMARK    1  A    between atoms: C2_2  and  N3_3 
REMARK    2  A    between atoms: N3_3  and  C4_4 
REMARK    3  A    between atoms: N7_6  and  C8_7 
REMARK    4  A    between atoms: C8_7  and  C9_8 
REMARK    5  A    between atoms: C9_8  and  C10_9 
REMARK    6  A    between atoms: C10_9  and  O11_10 
REMARK    7  A    between atoms: C19_18  and  S20_19 
REMARK    8  A    between atoms: S20_19  and  N21_20 
ROOT
ATOM      1  C4  <0> d   1       0.708  -1.945  -1.131  0.00  0.00     0.274 C 
ATOM      2  C6  <0> d   1       0.873  -2.508  -2.534  0.00  0.00     0.176 C 
ATOM      3  N7  <0> d   1       0.962  -3.980  -2.495  0.00  0.00    -0.304 N 
ATOM      4  S13 <0> d   1       2.320  -4.600  -1.740  0.00  0.00     0.268 S 
ATOM      5  O14 <0> d   1       1.955  -5.862  -1.197  0.00  0.00    -0.200 OA
ATOM      6  O15 <0> d   1       3.413  -4.410  -2.628  0.00  0.00    -0.200 OA
ATOM      7  C16 <0> d   1       2.558  -3.496  -0.373  0.00  0.00     0.130 A 
ATOM      8  C17 <0> d   1       1.828  -2.375  -0.202  0.00  0.00     0.009 A 
ATOM      9  C18 <0> d   1       2.204  -1.653   0.930  0.00  0.00     0.044 A 
ATOM     10  C19 <0> d   1       3.188  -2.176   1.656  0.00  0.00     0.121 A 
ATOM     11  S24 <0> d   1       3.731  -3.675   0.916  0.00  0.00    -0.062 SA
ENDROOT
BRANCH  10  12
ATOM     12  S20 <0> d   1       3.847  -1.473   3.131  0.00  0.00     0.263 S 
ATOM     13  O22 <0> d   1       5.163  -1.990   3.268  0.00  0.00    -0.200 OA
ATOM     14  O23 <0> d   1       3.560  -0.082   3.075  0.00  0.00    -0.200 OA
BRANCH  12  15
ATOM     15  N21 <0> d   1       2.971  -2.081   4.398  0.00  0.00    -0.324 N 
ATOM     16  H43 <0> d   1       2.248  -2.705   4.232  0.00  0.00     0.169 HD
ATOM     17  H44 <0> d   1       3.182  -1.812   5.306  0.00  0.00     0.169 HD
ENDBRANCH  12  15
ENDBRANCH  10  12
BRANCH   1  18
ATOM     18  N3  <0> d   1       0.690  -0.478  -1.207  0.00  0.00     0.093 N 
ATOM     19  H30 <0> d   1       1.369  -0.141  -1.873  0.00  0.00     0.316 HD
BRANCH  18  20
ATOM     20  C2  <0> d   1      -0.655   0.016  -1.532  0.00  0.00     0.266 C 
ATOM     21  C1  <0> d   1      -0.665   1.544  -1.474  0.00  0.00     0.037 C 
ENDBRANCH  18  20
ENDBRANCH   1  18
BRANCH   3  22
ATOM     22  C8  <0> d   1      -0.070  -4.841  -3.078  0.00  0.00     0.137 C 
BRANCH  22  23
ATOM     23  C9  <0> d   1       0.208  -5.030  -4.571  0.00  0.00     0.047 C 
BRANCH  23  24
ATOM     24  C10 <0> d   1      -0.870  -5.929  -5.180  0.00  0.00     0.168 C 
BRANCH  24  25
ATOM     25  O11 <0> d   1      -0.611  -6.106  -6.574  0.00  0.00    -0.396 OA
ATOM     26  C12 <0> d   1      -1.564  -6.935  -7.242  0.00  0.00     0.201 C 
ENDBRANCH  24  25
ENDBRANCH  23  24
ENDBRANCH  22  23
ENDBRANCH   3  22
TORSDOF 8
