REMARK  0 active torsions:
REMARK  status: ('A' for Active; 'I' for Inactive)
ROOT
ATOM      1  O1  <0> d   1       0.002  -0.004   0.002  0.00  0.00    -0.245 OA
ATOM      2  C2  <0> d   1      -0.014   1.212   0.009  0.00  0.00     0.349 A 
ATOM      3  N3  <0> d   1      -1.194   1.859   0.029  0.00  0.00    -0.151 NA
ATOM      4  C4  <0> d   1      -1.231   3.207   0.037  0.00  0.00     0.311 A 
ATOM      5  O5  <0> d   1      -2.299   3.792   0.056  0.00  0.00    -0.263 OA
ATOM      6  C6  <0> d   1      -0.015   3.936   0.024  0.00  0.00     0.201 A 
ATOM      7  F7  <0> d   1      -0.027   5.287   0.032  0.00  0.00    -0.199 F 
ATOM      8  C8  <0> d   1       1.155   3.261   0.004  0.00  0.00     0.141 A 
ATOM      9  N9  <0> d   1       1.147   1.891   0.001  0.00  0.00    -0.314 N 
ATOM     10  H11 <0> d   1       1.987   1.405  -0.013  0.00  0.00     0.170 HD
ENDROOT
TORSDOF 0
