REMARK  6 active torsions:
REMARK  status: ('A' for Active; 'I' for Inactive)
REMARK    1  A    between atoms: C5_5  and  C6_6 
REMARK    2  A    between atoms: C9_9  and  C10_10 
REMARK    3  A    between atoms: C13_13  and  N14_14 
REMARK    4  A    between atoms: C16_16  and  C18_17 
REMARK    5  A    between atoms: C18_17  and  O19_18 
REMARK    6  A    between atoms: O19_18  and  P20_19 
ROOT
ATOM      1  C10 ZIN A   1       0.115  -6.589   4.026  0.00  0.00     0.014 A 
ATOM      2  C11 ZIN A   1      -0.777  -7.642   3.832  0.00  0.00     0.017 A 
ATOM      3  C12 ZIN A   1      -0.756  -8.729   4.680  0.00  0.00     0.031 A 
ATOM      4  C13 ZIN A   1       0.155  -8.777   5.729  0.00  0.00     0.042 A 
ATOM      5  C27 ZIN A   1       1.046  -7.729   5.926  0.00  0.00     0.073 A 
ATOM      6  C28 ZIN A   1       1.033  -6.641   5.077  0.00  0.00     0.129 A 
ATOM      7  F29 ZIN A   1       1.900  -5.622   5.269  0.00  0.00    -0.205 F 
ENDROOT
BRANCH   1   8
ATOM      8  C9  ZIN A   1       0.094  -5.420   3.115  0.00  0.00    -0.005 A 
ATOM      9  C8  ZIN A   1       0.111  -5.601   1.728  0.00  0.00     0.016 A 
ATOM     10  C7  ZIN A   1       0.090  -4.481   0.919  0.00  0.00     0.037 A 
ATOM     11  C6  ZIN A   1       0.054  -3.218   1.506  0.00  0.00     0.107 A 
ATOM     12  N31 ZIN A   1       0.044  -3.082   2.826  0.00  0.00    -0.256 NA
ATOM     13  C30 ZIN A   1       0.057  -4.124   3.630  0.00  0.00     0.129 A 
BRANCH  11  14
ATOM     14  C5  ZIN A   1       0.032  -2.010   0.645  0.00  0.00     0.222 A 
ATOM     15  N4  ZIN A   1       0.038  -1.982  -0.695  0.00  0.00    -0.106 NA
ATOM     16  N3  ZIN A   1       0.013  -0.743  -1.052  0.00  0.00    -0.046 NA
ATOM     17  N2  ZIN A   1      -0.009  -0.004   0.002  0.00  0.00    -0.172 N 
ATOM     18  C1  ZIN A   1      -0.040   1.460   0.010  0.00  0.00     0.206 C 
ATOM     19  N32 ZIN A   1       0.006  -0.755   1.049  0.00  0.00    -0.130 NA
ENDBRANCH  11  14
ENDBRANCH   1   8
BRANCH   4  20
ATOM     20  N14 ZIN A   1       0.173  -9.880   6.587  0.00  0.00    -0.291 N 
ATOM     21  C25 ZIN A   1      -0.700 -10.897   6.569  0.00  0.00     0.368 A 
ATOM     22  O24 ZIN A   1      -0.460 -11.833   7.494  0.00  0.00    -0.294 OA
ATOM     23  O26 ZIN A   1      -1.621 -10.966   5.779  0.00  0.00    -0.238 OA
ATOM     24  C16 ZIN A   1       0.708 -11.453   8.277  0.00  0.00     0.176 A 
ATOM     25  C15 ZIN A   1       1.151 -10.112   7.661  0.00  0.00     0.169 A 
BRANCH  24  26
ATOM     26  C18 ZIN A   1       1.815 -12.500   8.136  0.00  0.00     0.216 C 
BRANCH  26  27
ATOM     27  O19 ZIN A   1       1.429 -13.697   8.815  0.00  0.00    -0.280 OA
BRANCH  27  28
ATOM     28  P20 ZIN A   1       2.357 -15.011   8.873  0.00  0.00     0.422 P 
ATOM     29  O21 ZIN A   1       2.732 -15.450   7.416  0.00  0.00    -0.617 OA
ATOM     30  O22 ZIN A   1       3.664 -14.692   9.675  0.00  0.00    -0.617 OA
ATOM     31  O23 ZIN A   1       1.578 -16.170   9.583  0.00  0.00    -0.617 OA
ENDBRANCH  27  28
ENDBRANCH  26  27
ENDBRANCH  24  26
ENDBRANCH   4  20
TORSDOF 6
