REMARK  3 active torsions:
REMARK  status: ('A' for Active; 'I' for Inactive)
REMARK    1  A    between atoms: C2_2  and  C3_3 
REMARK    2  A    between atoms: C9_8  and  C11_9 
REMARK    3  A    between atoms: C11_9  and  C12_10 
ROOT
ATOM      1  C3  ZIN A   1       0.928  -0.508  -1.095  0.00  0.00     0.091 C 
ATOM      2  C5  ZIN A   1       0.226  -0.083  -2.367  0.00  0.00     0.263 C 
ATOM      3  O6  ZIN A   1       0.049   1.061  -2.713  0.00  0.00    -0.265 OA
ATOM      4  O7  ZIN A   1      -0.169  -1.165  -3.052  0.00  0.00    -0.321 OA
ATOM      5  C8  ZIN A   1       0.606  -2.327  -2.634  0.00  0.00     0.184 C 
ATOM      6  C9  ZIN A   1       0.948  -2.052  -1.149  0.00  0.00     0.029 C 
ENDROOT
BRANCH   6   7
ATOM      7  C11 ZIN A   1      -0.117  -2.647  -0.225  0.00  0.00     0.066 C 
BRANCH   7   8
ATOM      8  C12 ZIN A   1      -0.095  -4.149  -0.336  0.00  0.00     0.030 A 
ATOM      9  N16 ZIN A   1       0.597  -5.016   0.466  0.00  0.00    -0.348 N 
ATOM     10  C15 ZIN A   1       0.335  -6.265   0.023  0.00  0.00     0.209 A 
ATOM     11  C17 ZIN A   1       1.453  -4.658   1.600  0.00  0.00     0.157 C 
ATOM     12  N14 ZIN A   1      -0.466  -6.186  -1.003  0.00  0.00    -0.254 NA
ATOM     13  C13 ZIN A   1      -0.747  -4.897  -1.247  0.00  0.00     0.143 A 
ENDBRANCH   7   8
ENDBRANCH   6   7
BRANCH   1  14
ATOM     14  C2  ZIN A   1       0.147  -0.028   0.130  0.00  0.00     0.010 C 
ATOM     15  C1  ZIN A   1       0.212   1.498   0.211  0.00  0.00     0.006 C 
ENDBRANCH   1  14
TORSDOF 3
