REMARK  5 active torsions:
REMARK  status: ('A' for Active; 'I' for Inactive)
REMARK    1  A    between atoms: N2_2  and  C4_4 
REMARK    2  A    between atoms: C7_7  and  O8_8 
REMARK    3  A    between atoms: C17_15  and  N19_16 
REMARK    4  A    between atoms: C24_21  and  C25_22 
REMARK       I    between atoms: C25_22  and  N26_23 
REMARK    5  A    between atoms: C30_27  and  O31_28 
ROOT
ATOM      1  C4  ZIN A   1      -0.620  -2.213   0.345  0.00  0.00     0.017 A 
ATOM      2  C5  ZIN A   1      -1.448  -2.324   1.458  0.00  0.00     0.027 A 
ATOM      3  C6  ZIN A   1      -2.566  -3.133   1.419  0.00  0.00     0.039 A 
ATOM      4  C7  ZIN A   1      -2.877  -3.838   0.266  0.00  0.00     0.079 A 
ATOM      5  C9  ZIN A   1      -2.056  -3.721  -0.862  0.00  0.00     0.042 A 
ATOM      6  C10 ZIN A   1      -0.918  -2.908  -0.813  0.00  0.00    -0.020 A 
ATOM      7  C11 ZIN A   1      -0.012  -2.820  -2.012  0.00  0.00     0.051 C 
ATOM      8  C12 ZIN A   1      -0.838  -2.890  -3.295  0.00  0.00     0.030 C 
ATOM      9  C14 ZIN A   1       0.101  -2.966  -4.503  0.00  0.00     0.021 C 
ATOM     10  C15 ZIN A   1      -0.743  -3.146  -5.764  0.00  0.00     0.077 C 
ATOM     11  C17 ZIN A   1       0.086  -2.889  -7.008  0.00  0.00     0.304 C 
ATOM     12  C22 ZIN A   1       1.015  -4.037  -7.285  0.00  0.00     0.201 C 
ATOM     13  O23 ZIN A   1       2.093  -3.836  -7.805  0.00  0.00    -0.290 OA
ATOM     14  C24 ZIN A   1       0.616  -5.395  -6.927  0.00  0.00     0.115 C 
ATOM     15  C28 ZIN A   1      -0.528  -5.608  -6.199  0.00  0.00     0.146 C 
ATOM     16  O29 ZIN A   1      -0.855  -6.867  -5.870  0.00  0.00    -0.192 OA
ATOM     17  C30 ZIN A   1      -1.407  -4.503  -5.771  0.00  0.00     0.181 C 
ATOM     18  C32 ZIN A   1      -1.991  -4.810  -4.423  0.00  0.00     0.200 C 
ATOM     19  O33 ZIN A   1      -2.729  -5.771  -4.322  0.00  0.00    -0.289 OA
ATOM     20  C34 ZIN A   1      -1.724  -4.107  -3.284  0.00  0.00     0.033 C 
ATOM     21  C35 ZIN A   1      -2.363  -4.455  -2.099  0.00  0.00     0.131 C 
ATOM     22  O36 ZIN A   1      -3.286  -5.441  -2.088  0.00  0.00    -0.190 OA
ENDROOT
BRANCH  14  23
ATOM     23  C25 ZIN A   1       1.442  -6.538  -7.346  0.00  0.00     0.255 C 
ATOM     24  N26 ZIN A   1       2.506  -6.342  -8.149  0.00  0.00    -0.366 N 
ATOM     25  H56 ZIN A   1       2.771  -5.441  -8.392  0.00  0.00     0.159 HD
ATOM     26  H57 ZIN A   1       3.008  -7.101  -8.485  0.00  0.00     0.159 HD
ATOM     27  O27 ZIN A   1       1.165  -7.661  -6.968  0.00  0.00    -0.268 OA
ENDBRANCH  14  23
BRANCH  11  28
ATOM     28  N19 ZIN A   1      -0.812  -2.709  -8.156  0.00  0.00     0.092 N 
ATOM     29  C20 ZIN A   1      -1.619  -1.491  -8.007  0.00  0.00     0.310 C 
ATOM     30  C21 ZIN A   1      -0.057  -2.689  -9.417  0.00  0.00     0.310 C 
ENDBRANCH  11  28
BRANCH  17  31
ATOM     31  O31 ZIN A   1      -2.499  -4.438  -6.689  0.00  0.00    -0.374 OA
ATOM     32  H58 ZIN A   1      -3.069  -5.218  -6.679  0.00  0.00     0.211 HD
ENDBRANCH  17  31
BRANCH   4  33
ATOM     33  O8  ZIN A   1      -3.973  -4.639   0.231  0.00  0.00    -0.360 OA
ATOM     34  H45 ZIN A   1      -4.778  -4.192  -0.063  0.00  0.00     0.217 HD
ENDBRANCH   4  33
BRANCH   1  35
ATOM     35  N2  ZIN A   1       0.513  -1.393   0.396  0.00  0.00    -0.291 NA
ATOM     36  C1  ZIN A   1       0.143  -0.000   0.678  0.00  0.00     0.116 C 
ATOM     37  C3  ZIN A   1       1.480  -1.892   1.383  0.00  0.00     0.116 C 
ENDBRANCH   1  35
TORSDOF 5
