REMARK  0 active torsions:
REMARK  status: ('A' for Active; 'I' for Inactive)
ROOT
ATOM      1  C1  ZIN A   1      -0.018   1.465   0.010  0.00  0.00     0.269 C 
ATOM      2  N2  ZIN A   1       0.002  -0.004   0.002  0.00  0.00    -0.072 N 
ATOM      3  H3  ZIN A   1       0.474  -0.334  -0.827  0.00  0.00     0.279 HD
ATOM      4  C4  ZIN A   1      -1.377  -0.520   0.028  0.00  0.00     0.249 C 
ATOM      5  C5  ZIN A   1      -1.317  -2.041  -0.085  0.00  0.00     0.125 C 
ATOM      6  N6  ZIN A   1      -0.548  -2.617   1.035  0.00  0.00    -0.255 NA
ATOM      7  C7  ZIN A   1      -0.519  -3.992   0.846  0.00  0.00     0.112 A 
ATOM      8  N8  ZIN A   1      -0.803  -4.465  -0.368  0.00  0.00    -0.248 NA
ATOM      9  C9  ZIN A   1      -0.765  -5.756  -0.632  0.00  0.00     0.118 A 
ATOM     10  C10 ZIN A   1      -0.428  -6.674   0.342  0.00  0.00     0.020 A 
ATOM     11  C11 ZIN A   1      -0.139  -6.221   1.623  0.00  0.00     0.012 A 
ATOM     12  C12 ZIN A   1      -0.204  -4.861   1.864  0.00  0.00    -0.013 A 
ATOM     13  C13 ZIN A   1       0.027  -4.325   3.243  0.00  0.00     0.081 C 
ATOM     14  C14 ZIN A   1       1.222  -3.423   3.315  0.00  0.00    -0.046 A 
ATOM     15  C15 ZIN A   1       2.075  -3.668   4.395  0.00  0.00     0.008 A 
ATOM     16  C16 ZIN A   1       3.205  -2.911   4.602  0.00  0.00     0.001 A 
ATOM     17  C17 ZIN A   1       3.501  -1.885   3.724  0.00  0.00     0.001 A 
ATOM     18  C18 ZIN A   1       2.666  -1.646   2.659  0.00  0.00     0.009 A 
ATOM     19  C19 ZIN A   1       1.519  -2.420   2.437  0.00  0.00    -0.032 A 
ATOM     20  C20 ZIN A   1       0.755  -2.030   1.199  0.00  0.00     0.124 C 
ATOM     21  C22 ZIN A   1       0.696  -0.496   1.194  0.00  0.00     0.259 C 
ENDROOT
TORSDOF 0
