REMARK  3 active torsions:
REMARK  status: ('A' for Active; 'I' for Inactive)
REMARK    1  A    between atoms: N5_5  and  C6_6 
REMARK    2  A    between atoms: C6_6  and  C8_7 
REMARK    3  A    between atoms: C6_6  and  C14_13 
ROOT
ATOM      1  C6  <0> d   1      -0.568  -4.068   1.006  0.00  0.00     0.289 C 
ENDROOT
BRANCH   1   2
ATOM      2  N5  <0> d   1      -0.772  -2.620   1.152  0.00  0.00     0.105 N 
ATOM      3  C4  <0> d   1      -1.607  -2.323   2.325  0.00  0.00     0.304 C 
ATOM      4  C3  <0> d   1      -1.730  -0.806   2.488  0.00  0.00     0.302 C 
ATOM      5  N2  <0> d   1      -2.314  -0.230   1.269  0.00  0.00     0.087 N 
ATOM      6  C1  <0> d   1      -2.519   1.217   1.415  0.00  0.00     0.310 C 
ATOM      7  C22 <0> d   1      -1.480  -0.528   0.096  0.00  0.00     0.302 C 
ATOM      8  C21 <0> d   1      -1.357  -2.045  -0.067  0.00  0.00     0.304 C 
ENDBRANCH   1   2
BRANCH   1   9
ATOM      9  C8  <0> d   1       0.082  -4.612   2.252  0.00  0.00    -0.021 A 
ATOM     10  C13 <0> d   1      -0.388  -5.780   2.823  0.00  0.00     0.010 A 
ATOM     11  C12 <0> d   1       0.211  -6.281   3.963  0.00  0.00     0.001 A 
ATOM     12  C11 <0> d   1       1.275  -5.611   4.537  0.00  0.00     0.000 A 
ATOM     13  C10 <0> d   1       1.742  -4.440   3.969  0.00  0.00     0.001 A 
ATOM     14  C9  <0> d   1       1.145  -3.941   2.826  0.00  0.00     0.010 A 
ENDBRANCH   1   9
BRANCH   1  15
ATOM     15  C14 <0> d   1       0.322  -4.332  -0.182  0.00  0.00    -0.021 A 
ATOM     16  C20 <0> d   1       0.013  -5.350  -1.064  0.00  0.00     0.011 A 
ATOM     17  C19 <0> d   1       0.825  -5.589  -2.156  0.00  0.00     0.024 A 
ATOM     18  C17 <0> d   1       1.954  -4.816  -2.360  0.00  0.00     0.034 A 
ATOM     19  C16 <0> d   1       2.266  -3.800  -1.474  0.00  0.00     0.024 A 
ATOM     20 Cl18 <0> d   1       2.979  -5.120  -3.728  0.00  0.00    -0.084 Cl
ATOM     21  C15 <0> d   1       1.450  -3.559  -0.385  0.00  0.00     0.011 A 
ENDBRANCH   1  15
TORSDOF 3
