REMARK  6 active torsions:
REMARK  status: ('A' for Active; 'I' for Inactive)
REMARK    1  A    between atoms: N1_1  and  C5_5 
REMARK    2  A    between atoms: C5_5  and  C6_6 
REMARK    3  A    between atoms: C6_6  and  C7_7 
REMARK    4  A    between atoms: C7_7  and  O8_8 
REMARK    5  A    between atoms: C7_7  and  P9_9 
REMARK    6  A    between atoms: C7_7  and  P13_13 
ROOT
ATOM      1  C7  RES d   1      -2.851   1.442   2.486  0.00  0.00     0.286 C 
ENDROOT
BRANCH   1   2
ATOM      2  C6  RES d   1      -2.135   0.949   1.227  0.00  0.00     0.095 C 
BRANCH   2   3
ATOM      3  C5  RES d   1      -0.699   1.479   1.216  0.00  0.00     0.234 C 
BRANCH   3   4
ATOM      4  N1  RES d   1      -0.012   1.005   0.008  0.00  0.00    -0.079 N 
ATOM      5  H2  RES d   1       0.002  -0.004   0.002  0.00  0.00     0.274 HD
ATOM      6  H3  RES d   1       0.935   1.354   0.000  0.00  0.00     0.274 HD
ATOM      7  H4  RES d   1      -0.500   1.339  -0.810  0.00  0.00     0.274 HD
ENDBRANCH   3   4
ENDBRANCH   2   3
ENDBRANCH   1   2
BRANCH   1   8
ATOM      8  O8  RES d   1      -2.160   0.969   3.643  0.00  0.00    -0.365 OA
ATOM      9  H21 RES d   1      -2.108   0.005   3.704  0.00  0.00     0.212 HD
ENDBRANCH   1   8
BRANCH   1  10
ATOM     10  P9  RES d   1      -2.875   3.265   2.496  0.00  0.00     0.310 P 
ATOM     11  O10 RES d   1      -1.410   3.807   2.614  0.00  0.00    -0.637 OA
ATOM     12  O11 RES d   1      -3.519   3.786   1.166  0.00  0.00    -0.637 OA
ATOM     13  O12 RES d   1      -3.718   3.769   3.717  0.00  0.00    -0.637 OA
ENDBRANCH   1  10
BRANCH   1  14
ATOM     14  P13 RES d   1      -4.561   0.811   2.499  0.00  0.00     0.310 P 
ATOM     15  O14 RES d   1      -5.319   1.330   1.230  0.00  0.00    -0.637 OA
ATOM     16  O15 RES d   1      -4.540  -0.755   2.490  0.00  0.00    -0.637 OA
ATOM     17  O16 RES d   1      -5.294   1.317   3.788  0.00  0.00    -0.637 OA
ENDBRANCH   1  14
TORSDOF 6
