REMARK  11 active torsions:
REMARK  status: ('A' for Active; 'I' for Inactive)
REMARK    1  A    between atoms: N2_2  and  C4_4 
REMARK    2  A    between atoms: N2_2  and  C18_18 
REMARK    3  A    between atoms: C4_4  and  C5_5 
REMARK    4  A    between atoms: C5_5  and  O6_6 
REMARK    5  A    between atoms: O6_6  and  C7_7 
REMARK    6  A    between atoms: C10_10  and  N11_11 
REMARK    7  A    between atoms: N11_11  and  S12_12 
REMARK    8  A    between atoms: C18_18  and  C19_19 
REMARK    9  A    between atoms: C19_19  and  C20_20 
REMARK   10  A    between atoms: C23_23  and  N24_24 
REMARK   11  A    between atoms: N24_24  and  S25_25 
ROOT
ATOM      1  C1  ZIN A   1      -0.150   0.795   1.393  0.00  0.00     0.269 C 
ATOM      2  N2  ZIN A   1       0.122  -0.648   1.400  0.00  0.00    -0.073 N 
ATOM      3  H3  ZIN A   1      -0.749  -1.155   1.352  0.00  0.00     0.279 HD
ENDROOT
BRANCH   2   4
ATOM      4  C4  ZIN A   1       0.829  -1.007   2.637  0.00  0.00     0.261 C 
BRANCH   4   5
ATOM      5  C5  ZIN A   1      -0.086  -0.762   3.838  0.00  0.00     0.203 C 
BRANCH   5   6
ATOM      6  O6  ZIN A   1      -1.206  -1.647   3.772  0.00  0.00    -0.349 OA
BRANCH   6   7
ATOM      7  C7  ZIN A   1      -2.123  -1.559   4.772  0.00  0.00     0.069 A 
ATOM      8  C17 ZIN A   1      -3.234  -2.389   4.769  0.00  0.00     0.039 A 
ATOM      9  C16 ZIN A   1      -4.164  -2.303   5.787  0.00  0.00     0.033 A 
ATOM     10  C10 ZIN A   1      -3.991  -1.377   6.808  0.00  0.00     0.042 A 
ATOM     11  C9  ZIN A   1      -2.882  -0.542   6.807  0.00  0.00     0.033 A 
ATOM     12  C8  ZIN A   1      -1.950  -0.634   5.791  0.00  0.00     0.039 A 
BRANCH  10  13
ATOM     13  N11 ZIN A   1      -4.936  -1.285   7.836  0.00  0.00    -0.285 N 
ATOM     14  H40 ZIN A   1      -4.644  -1.238   8.760  0.00  0.00     0.178 HD
BRANCH  13  15
ATOM     15  S12 ZIN A   1      -6.552  -1.256   7.476  0.00  0.00     0.227 S 
ATOM     16  C13 ZIN A   1      -6.763   0.233   6.461  0.00  0.00     0.186 C 
ATOM     17  O14 ZIN A   1      -6.758  -2.425   6.696  0.00  0.00    -0.206 OA
ATOM     18  O15 ZIN A   1      -7.189  -1.095   8.736  0.00  0.00    -0.206 OA
ENDBRANCH  13  15
ENDBRANCH  10  13
ENDBRANCH   6   7
ENDBRANCH   5   6
ENDBRANCH   4   5
ENDBRANCH   2   4
BRANCH   2  19
ATOM     19  C18 ZIN A   1       0.955  -0.995   0.241  0.00  0.00     0.239 C 
BRANCH  19  20
ATOM     20  C19 ZIN A   1       0.170  -0.738  -1.047  0.00  0.00     0.066 C 
BRANCH  20  21
ATOM     21  C20 ZIN A   1       1.025  -1.094  -2.236  0.00  0.00    -0.057 A 
ATOM     22  C30 ZIN A   1       0.995  -2.378  -2.747  0.00  0.00     0.009 A 
ATOM     23  C29 ZIN A   1       1.772  -2.706  -3.840  0.00  0.00     0.030 A 
ATOM     24  C23 ZIN A   1       2.594  -1.747  -4.419  0.00  0.00     0.042 A 
ATOM     25  C22 ZIN A   1       2.627  -0.460  -3.899  0.00  0.00     0.030 A 
ATOM     26  C21 ZIN A   1       1.842  -0.137  -2.809  0.00  0.00     0.009 A 
BRANCH  24  27
ATOM     27  N24 ZIN A   1       3.387  -2.078  -5.521  0.00  0.00    -0.285 N 
ATOM     28  H52 ZIN A   1       3.418  -1.487  -6.289  0.00  0.00     0.178 HD
BRANCH  27  29
ATOM     29  S25 ZIN A   1       4.272  -3.477  -5.514  0.00  0.00     0.227 S 
ATOM     30  C26 ZIN A   1       5.408  -3.287  -4.112  0.00  0.00     0.186 C 
ATOM     31  O27 ZIN A   1       3.317  -4.495  -5.247  0.00  0.00    -0.206 OA
ATOM     32  O28 ZIN A   1       4.986  -3.446  -6.742  0.00  0.00    -0.206 OA
ENDBRANCH  27  29
ENDBRANCH  24  27
ENDBRANCH  20  21
ENDBRANCH  19  20
ENDBRANCH   2  19
TORSDOF 11
