REMARK  14 active torsions:
REMARK  status: ('A' for Active; 'I' for Inactive)
REMARK    1  A    between atoms: C2_2  and  N5_5 
REMARK       I    between atoms: N5_5  and  C6_6 
REMARK    2  A    between atoms: C6_6  and  C8_8 
REMARK    3  A    between atoms: N11_10  and  C13_12 
REMARK    4  A    between atoms: C13_12  and  C14_13 
REMARK    5  A    between atoms: N22_21  and  C23_22 
REMARK    6  A    between atoms: C23_22  and  C24_23 
REMARK    7  A    between atoms: C24_23  and  O26_24 
REMARK    8  A    between atoms: C24_23  and  C27_25 
REMARK    9  A    between atoms: C27_25  and  C28_26 
REMARK   10  A    between atoms: C28_26  and  C30_27 
REMARK   11  A    between atoms: C28_26  and  C37_34 
REMARK   12  A    between atoms: C30_27  and  C31_28 
REMARK       I    between atoms: C37_34  and  N39_36 
REMARK   13  A    between atoms: N39_36  and  C40_37 
REMARK   14  A    between atoms: C49_45  and  O51_46 
ROOT
ATOM      1  C24 ZIN A   1       3.041   2.071  -1.975  0.00  0.00     0.147 C 
ENDROOT
BRANCH   1   2
ATOM      2  C23 ZIN A   1       3.452   1.074  -3.061  0.00  0.00     0.305 C 
BRANCH   2   3
ATOM      3  N22 ZIN A   1       4.557   0.241  -2.567  0.00  0.00     0.108 N 
ATOM      4  C8  ZIN A   1       5.132  -0.568  -3.651  0.00  0.00     0.339 C 
ATOM      5  C10 ZIN A   1       6.315  -1.374  -3.109  0.00  0.00     0.281 C 
ATOM      6  N11 ZIN A   1       5.857  -2.243  -2.018  0.00  0.00    -0.063 N 
ATOM      7  H12 ZIN A   1       5.142  -2.866  -2.361  0.00  0.00     0.280 HD
ATOM      8  C20 ZIN A   1       5.308  -1.420  -0.932  0.00  0.00     0.265 C 
ATOM      9  C21 ZIN A   1       4.116  -0.614  -1.455  0.00  0.00     0.301 C 
BRANCH   4  10
ATOM     10  C6  ZIN A   1       4.085  -1.510  -4.186  0.00  0.00     0.253 C 
ATOM     11  N5  ZIN A   1       4.352  -2.272  -5.264  0.00  0.00    -0.351 N 
ATOM     12  H61 ZIN A   1       5.219  -2.215  -5.696  0.00  0.00     0.163 HD
ATOM     13  O7  ZIN A   1       3.001  -1.581  -3.646  0.00  0.00    -0.271 OA
BRANCH  11  14
ATOM     14  C2  ZIN A   1       3.333  -3.188  -5.784  0.00  0.00     0.022 C 
ATOM     15  C1  ZIN A   1       2.093  -2.392  -6.193  0.00  0.00     0.037 C 
ATOM     16  C3  ZIN A   1       2.956  -4.200  -4.700  0.00  0.00     0.037 C 
ATOM     17  C4  ZIN A   1       3.888  -3.929  -7.003  0.00  0.00     0.037 C 
ENDBRANCH  11  14
ENDBRANCH   4  10
BRANCH   6  18
ATOM     18  C13 ZIN A   1       6.989  -3.029  -1.510  0.00  0.00     0.275 C 
BRANCH  18  19
ATOM     19  C14 ZIN A   1       6.497  -4.008  -0.475  0.00  0.00    -0.015 A 
ATOM     20  C19 ZIN A   1       6.087  -5.274  -0.848  0.00  0.00     0.125 A 
ATOM     21  N18 ZIN A   1       5.660  -6.138   0.052  0.00  0.00    -0.273 NA
ATOM     22  C17 ZIN A   1       5.596  -5.829   1.333  0.00  0.00     0.116 A 
ATOM     23  C16 ZIN A   1       5.984  -4.580   1.780  0.00  0.00     0.020 A 
ATOM     24  C15 ZIN A   1       6.444  -3.648   0.863  0.00  0.00     0.012 A 
ENDBRANCH  18  19
ENDBRANCH   6  18
ENDBRANCH   2   3
ENDBRANCH   1   2
BRANCH   1  25
ATOM     25  O26 ZIN A   1       4.180   2.834  -1.573  0.00  0.00    -0.394 OA
ATOM     26  H76 ZIN A   1       4.586   3.342  -2.289  0.00  0.00     0.210 HD
ENDBRANCH   1  25
BRANCH   1  27
ATOM     27  C27 ZIN A   1       1.967   3.011  -2.527  0.00  0.00     0.047 C 
BRANCH  27  28
ATOM     28  C28 ZIN A   1       1.469   3.929  -1.409  0.00  0.00     0.084 C 
BRANCH  28  29
ATOM     29  C30 ZIN A   1       2.604   4.855  -0.966  0.00  0.00     0.052 C 
BRANCH  29  30
ATOM     30  C31 ZIN A   1       2.117   5.752   0.143  0.00  0.00    -0.057 A 
ATOM     31  C36 ZIN A   1       2.128   5.302   1.450  0.00  0.00     0.007 A 
ATOM     32  C35 ZIN A   1       1.685   6.125   2.469  0.00  0.00     0.001 A 
ATOM     33  C34 ZIN A   1       1.223   7.396   2.179  0.00  0.00     0.000 A 
ATOM     34  C33 ZIN A   1       1.207   7.843   0.871  0.00  0.00     0.001 A 
ATOM     35  C32 ZIN A   1       1.654   7.021  -0.147  0.00  0.00     0.007 A 
ENDBRANCH  29  30
ENDBRANCH  28  29
BRANCH  28  36
ATOM     36  C37 ZIN A   1       0.314   4.755  -1.913  0.00  0.00     0.222 C 
ATOM     37  O38 ZIN A   1       0.168   4.929  -3.104  0.00  0.00    -0.273 OA
ATOM     38  N39 ZIN A   1      -0.556   5.300  -1.041  0.00  0.00    -0.350 N 
ATOM     39  H86 ZIN A   1      -0.395   5.230  -0.087  0.00  0.00     0.163 HD
BRANCH  38  40
ATOM     40  C40 ZIN A   1      -1.747   5.998  -1.533  0.00  0.00     0.147 C 
ATOM     41  C49 ZIN A   1      -2.222   7.041  -0.499  0.00  0.00     0.149 C 
ATOM     42  C48 ZIN A   1      -3.758   6.989  -0.660  0.00  0.00     0.073 C 
ATOM     43  C47 ZIN A   1      -4.056   5.598  -1.179  0.00  0.00    -0.047 A 
ATOM     44  C42 ZIN A   1      -2.900   5.029  -1.680  0.00  0.00    -0.027 A 
ATOM     45  C46 ZIN A   1      -5.244   4.888  -1.210  0.00  0.00     0.008 A 
ATOM     46  C43 ZIN A   1      -2.936   3.751  -2.212  0.00  0.00     0.010 A 
ATOM     47  C44 ZIN A   1      -4.123   3.044  -2.242  0.00  0.00     0.001 A 
ATOM     48  C45 ZIN A   1      -5.278   3.613  -1.740  0.00  0.00     0.001 A 
BRANCH  41  49
ATOM     49  O51 ZIN A   1      -1.836   6.660   0.823  0.00  0.00    -0.393 OA
ATOM     50  H93 ZIN A   1      -2.185   7.238   1.516  0.00  0.00     0.210 HD
ENDBRANCH  41  49
ENDBRANCH  38  40
ENDBRANCH  28  36
ENDBRANCH  27  28
ENDBRANCH   1  27
TORSDOF 14
