REMARK  7 active torsions:
REMARK  status: ('A' for Active; 'I' for Inactive)
REMARK    1  A    between atoms: O2_2  and  C3_3 
REMARK    2  A    between atoms: C6_6  and  C7_7 
REMARK    3  A    between atoms: C7_7  and  N8_8 
REMARK    4  A    between atoms: N8_8  and  C9_9 
REMARK    5  A    between atoms: N8_8  and  C15_15 
REMARK    6  A    between atoms: C9_9  and  C10_10 
REMARK    7  A    between atoms: C10_10  and  N11_11 
ROOT
ATOM      1  N8  ZIN A   1       3.923  -2.713  -4.080  0.00  0.00    -0.208 N 
ENDROOT
BRANCH   1   2
ATOM      2  C7  ZIN A   1       2.505  -2.503  -4.381  0.00  0.00     0.180 C 
BRANCH   2   3
ATOM      3  C6  ZIN A   1       1.835  -1.835  -3.209  0.00  0.00    -0.040 A 
ATOM      4  C5  ZIN A   1       1.786  -0.455  -3.136  0.00  0.00     0.011 A 
ATOM      5  C4  ZIN A   1       1.173   0.161  -2.062  0.00  0.00     0.037 A 
ATOM      6  C3  ZIN A   1       0.606  -0.607  -1.056  0.00  0.00     0.068 A 
ATOM      7  C22 ZIN A   1       0.661  -1.992  -1.128  0.00  0.00     0.037 A 
ATOM      8  C21 ZIN A   1       1.271  -2.602  -2.206  0.00  0.00     0.011 A 
BRANCH   6   9
ATOM      9  O2  ZIN A   1       0.002  -0.004   0.002  0.00  0.00    -0.356 OA
ATOM     10  C1  ZIN A   1      -0.017   1.425   0.010  0.00  0.00     0.210 C 
ENDBRANCH   6   9
ENDBRANCH   2   3
ENDBRANCH   1   2
BRANCH   1  11
ATOM     11  C9  ZIN A   1       4.359  -3.955  -3.437  0.00  0.00     0.169 C 
BRANCH  11  12
ATOM     12  C10 ZIN A   1       4.696  -4.994  -4.508  0.00  0.00     0.254 C 
BRANCH  12  13
ATOM     13  N11 ZIN A   1       5.133  -6.239  -3.864  0.00  0.00    -0.077 N 
ATOM     14  H12 ZIN A   1       5.900  -6.043  -3.238  0.00  0.00     0.279 HD
ATOM     15  C13 ZIN A   1       4.016  -6.815  -3.103  0.00  0.00     0.269 C 
ATOM     16  C14 ZIN A   1       5.571  -7.194  -4.890  0.00  0.00     0.269 C 
ENDBRANCH  12  13
ENDBRANCH  11  12
ENDBRANCH   1  11
BRANCH   1  17
ATOM     17  C15 ZIN A   1       4.851  -1.738  -4.402  0.00  0.00     0.724 A 
ATOM     18  N20 ZIN A   1       4.439  -0.621  -4.984  0.00  0.00    -0.075 NA
ATOM     19  C19 ZIN A   1       5.300   0.332  -5.301  0.00  0.00     0.138 A 
ATOM     20  C18 ZIN A   1       6.646   0.147  -5.027  0.00  0.00     0.040 A 
ATOM     21  C17 ZIN A   1       7.042  -1.036  -4.423  0.00  0.00     0.138 A 
ATOM     22  N16 ZIN A   1       6.130  -1.947  -4.127  0.00  0.00    -0.075 NA
ENDBRANCH   1  17
TORSDOF 7
