REMARK  11 active torsions:
REMARK  status: ('A' for Active; 'I' for Inactive)
REMARK    1  A    between atoms: O2_2  and  C3_3 
REMARK    2  A    between atoms: C6_6  and  C7_7 
REMARK    3  A    between atoms: C7_7  and  C8_8 
REMARK    4  A    between atoms: C8_8  and  N11_10 
REMARK    5  A    between atoms: N11_10  and  C14_13 
REMARK    6  A    between atoms: C14_13  and  C15_14 
REMARK    7  A    between atoms: C15_14  and  O17_15 
REMARK    8  A    between atoms: C15_14  and  C18_16 
REMARK    9  A    between atoms: C21_19  and  O22_20 
REMARK   10  A    between atoms: C23_21  and  N24_22 
REMARK   11  A    between atoms: N24_22  and  C25_23 
ROOT
ATOM      1  C14 ZIN A   1       5.528  -3.802  -2.613  0.00  0.00     0.269 C 
ENDROOT
BRANCH   1   2
ATOM      2  N11 ZIN A   1       4.116  -3.687  -3.001  0.00  0.00    -0.068 N 
ATOM      3  H12 ZIN A   1       3.578  -3.348  -2.217  0.00  0.00     0.277 HD
ATOM      4  H13 ZIN A   1       3.769  -4.592  -3.281  0.00  0.00     0.277 HD
BRANCH   2   5
ATOM      5  C8  ZIN A   1       3.991  -2.746  -4.122  0.00  0.00     0.186 C 
ATOM      6  C10 ZIN A   1       4.702  -3.319  -5.350  0.00  0.00     0.040 C 
BRANCH   5   7
ATOM      7  C7  ZIN A   1       2.511  -2.531  -4.445  0.00  0.00     0.071 C 
BRANCH   7   8
ATOM      8  C6  ZIN A   1       1.836  -1.853  -3.280  0.00  0.00    -0.056 A 
ATOM      9  C5  ZIN A   1       1.786  -0.473  -3.218  0.00  0.00     0.010 A 
ATOM     10  C4  ZIN A   1       1.168   0.150  -2.151  0.00  0.00     0.037 A 
ATOM     11  C3  ZIN A   1       0.598  -0.610  -1.141  0.00  0.00     0.068 A 
ATOM     12  C29 ZIN A   1       0.654  -1.995  -1.202  0.00  0.00     0.037 A 
ATOM     13  C28 ZIN A   1       1.269  -2.614  -2.274  0.00  0.00     0.010 A 
BRANCH  11  14
ATOM     14  O2  ZIN A   1      -0.010   0.001  -0.090  0.00  0.00    -0.356 OA
ATOM     15  C1  ZIN A   1      -0.031   1.429  -0.093  0.00  0.00     0.210 C 
ENDBRANCH  11  14
ENDBRANCH   7   8
ENDBRANCH   5   7
ENDBRANCH   2   5
ENDBRANCH   1   2
BRANCH   1  16
ATOM     16  C15 ZIN A   1       5.658  -4.782  -1.445  0.00  0.00     0.176 C 
BRANCH  16  17
ATOM     17  O17 ZIN A   1       4.897  -4.302  -0.335  0.00  0.00    -0.389 OA
ATOM     18  H42 ZIN A   1       5.176  -3.434  -0.012  0.00  0.00     0.210 HD
ENDBRANCH  16  17
BRANCH  16  19
ATOM     19  C18 ZIN A   1       7.107  -4.900  -1.048  0.00  0.00    -0.026 A 
ATOM     20  C27 ZIN A   1       7.882  -5.923  -1.562  0.00  0.00     0.042 A 
ATOM     21  C23 ZIN A   1       9.216  -6.029  -1.201  0.00  0.00     0.068 A 
ATOM     22  C21 ZIN A   1       9.770  -5.110  -0.312  0.00  0.00     0.092 A 
ATOM     23  C20 ZIN A   1       8.985  -4.092   0.203  0.00  0.00     0.039 A 
ATOM     24  C19 ZIN A   1       7.656  -3.988  -0.166  0.00  0.00     0.012 A 
BRANCH  21  25
ATOM     25  N24 ZIN A   1      10.005  -7.062  -1.725  0.00  0.00    -0.332 N 
ATOM     26  H46 ZIN A   1      10.943  -6.907  -1.916  0.00  0.00     0.168 HD
BRANCH  25  27
ATOM     27  C25 ZIN A   1       9.460  -8.272  -1.963  0.00  0.00     0.353 C 
ATOM     28  O26 ZIN A   1       8.271  -8.444  -1.801  0.00  0.00    -0.283 OA
ENDBRANCH  25  27
ENDBRANCH  21  25
BRANCH  22  29
ATOM     29  O22 ZIN A   1      11.076  -5.213   0.050  0.00  0.00    -0.358 OA
ATOM     30  H45 ZIN A   1      11.226  -5.762   0.832  0.00  0.00     0.217 HD
ENDBRANCH  22  29
ENDBRANCH  16  19
ENDBRANCH   1  16
TORSDOF 11
