REMARK  2 active torsions:
REMARK  status: ('A' for Active; 'I' for Inactive)
REMARK    1  A    between atoms: N2_2  and  C3_3 
REMARK    2  A    between atoms: C3_3  and  C4_4 
ROOT
ATOM      1  C3  ZIN A   1      -1.356  -0.550   0.132  0.00  0.00     0.244 C 
ATOM      2  C11 ZIN A   1      -1.048  -2.038   0.330  0.00  0.00     0.055 C 
ATOM      3  C12 ZIN A   1      -0.515  -2.625  -0.977  0.00  0.00     0.004 C 
ATOM      4  C13 ZIN A   1      -1.594  -2.549  -2.059  0.00  0.00     0.007 C 
ATOM      5  C14 ZIN A   1      -1.922  -1.080  -2.347  0.00  0.00     0.081 C 
ATOM      6  C15 ZIN A   1      -2.295  -0.406  -1.045  0.00  0.00     0.170 C 
ATOM      7  O16 ZIN A   1      -3.317   0.231  -0.948  0.00  0.00    -0.295 OA
ENDROOT
BRANCH   1   8
ATOM      8  N2  ZIN A   1      -0.110   0.180  -0.139  0.00  0.00     0.101 N 
ATOM      9  C1  ZIN A   1      -0.386   1.575  -0.509  0.00  0.00     0.308 C 
ATOM     10  H20 ZIN A   1       0.432  -0.283  -0.854  0.00  0.00     0.317 HD
ENDBRANCH   1   8
BRANCH   1  11
ATOM     11  C4  ZIN A   1      -2.008   0.006   1.371  0.00  0.00     0.009 A 
ATOM     12  C9  ZIN A   1      -3.258  -0.446   1.757  0.00  0.00     0.043 A 
ATOM     13  C8  ZIN A   1      -3.853   0.060   2.899  0.00  0.00     0.024 A 
ATOM     14 Cl10 ZIN A   1      -4.070  -1.660   0.819  0.00  0.00    -0.084 Cl
ATOM     15  C7  ZIN A   1      -3.206   1.026   3.646  0.00  0.00     0.002 A 
ATOM     16  C6  ZIN A   1      -1.961   1.482   3.256  0.00  0.00     0.001 A 
ATOM     17  C5  ZIN A   1      -1.362   0.972   2.119  0.00  0.00     0.012 A 
ENDBRANCH   1  11
TORSDOF 2
