REMARK  10 active torsions:
REMARK  status: ('A' for Active; 'I' for Inactive)
REMARK    1  A    between atoms: C2_2  and  C4_3 
REMARK    2  A    between atoms: C2_2  and  N11_10 
REMARK    3  A    between atoms: C4_3  and  C5_4 
REMARK       I    between atoms: N11_10  and  C12_11 
REMARK    4  A    between atoms: C12_11  and  C14_13 
REMARK    5  A    between atoms: C14_13  and  N16_14 
REMARK    6  A    between atoms: C14_13  and  C20_18 
REMARK    7  A    between atoms: C20_18  and  C21_19 
REMARK    8  A    between atoms: C21_19  and  C22_20 
REMARK    9  A    between atoms: C22_20  and  C23_21 
REMARK   10  A    between atoms: C23_21  and  N24_22 
ROOT
ATOM      1  N11 <0> d   1      -1.372  -0.511   0.012  0.00  0.00    -0.355 N 
ATOM      2  C12 <0> d   1      -2.051  -0.643  -1.145  0.00  0.00     0.248 C 
ATOM      3  O13 <0> d   1      -1.524  -0.341  -2.194  0.00  0.00    -0.271 OA
ATOM      4  H38 <0> d   1      -1.794  -0.752   0.852  0.00  0.00     0.162 HD
ENDROOT
BRANCH   2   5
ATOM      5  C14 <0> d   1      -3.465  -1.164  -1.134  0.00  0.00     0.274 C 
BRANCH   5   6
ATOM      6  N16 <0> d   1      -4.139  -0.778  -2.381  0.00  0.00    -0.067 N 
ATOM      7  H17 <0> d   1      -3.642  -1.169  -3.167  0.00  0.00     0.275 HD
ATOM      8  H18 <0> d   1      -5.085  -1.127  -2.374  0.00  0.00     0.275 HD
ATOM      9  H19 <0> d   1      -4.152   0.228  -2.458  0.00  0.00     0.275 HD
ENDBRANCH   5   6
BRANCH   5  10
ATOM     10  C20 <0> d   1      -3.445  -2.690  -1.017  0.00  0.00     0.042 C 
BRANCH  10  11
ATOM     11  C21 <0> d   1      -4.877  -3.210  -0.880  0.00  0.00     0.004 C 
BRANCH  11  12
ATOM     12  C22 <0> d   1      -4.857  -4.735  -0.763  0.00  0.00     0.027 C 
BRANCH  12  13
ATOM     13  C23 <0> d   1      -6.290  -5.255  -0.627  0.00  0.00     0.229 C 
BRANCH  13  14
ATOM     14  N24 <0> d   1      -6.270  -6.719  -0.514  0.00  0.00    -0.079 N 
ATOM     15  H25 <0> d   1      -5.846  -7.115  -1.340  0.00  0.00     0.274 HD
ATOM     16  H26 <0> d   1      -5.737  -6.987   0.299  0.00  0.00     0.274 HD
ATOM     17  H27 <0> d   1      -7.215  -7.062  -0.424  0.00  0.00     0.274 HD
ENDBRANCH  13  14
ENDBRANCH  12  13
ENDBRANCH  11  12
ENDBRANCH  10  11
ENDBRANCH   5  10
ENDBRANCH   2   5
BRANCH   1  18
ATOM     18  C2  <0> d   1       0.002  -0.004   0.002  0.00  0.00     0.084 C 
ATOM     19  C1  <0> d   1      -0.019   1.526   0.010  0.00  0.00     0.032 C 
BRANCH  18  20
ATOM     20  C4  <0> d   1       0.742  -0.511   1.242  0.00  0.00     0.063 C 
BRANCH  20  21
ATOM     21  C5  <0> d   1       0.870  -2.011   1.172  0.00  0.00    -0.056 A 
ATOM     22  C10 <0> d   1       1.972  -2.583   0.564  0.00  0.00     0.007 A 
ATOM     23  C9  <0> d   1       2.091  -3.959   0.504  0.00  0.00     0.001 A 
ATOM     24  C8  <0> d   1       1.104  -4.763   1.044  0.00  0.00     0.000 A 
ATOM     25  C7  <0> d   1      -0.000  -4.190   1.647  0.00  0.00     0.001 A 
ATOM     26  C6  <0> d   1      -0.117  -2.814   1.710  0.00  0.00     0.007 A 
ENDBRANCH  20  21
ENDBRANCH  18  20
ENDBRANCH   1  18
TORSDOF 10
