REMARK  4 active torsions:
REMARK  status: ('A' for Active; 'I' for Inactive)
REMARK    1  A    between atoms: O1_1  and  C2_2 
REMARK    2  A    between atoms: C5_5  and  C6_6 
REMARK    3  A    between atoms: C17_16  and  O18_17 
REMARK    4  A    between atoms: C19_18  and  O20_19 
ROOT
ATOM      1  C6  <0> d   1       0.061  -4.277  -0.021  0.00  0.00     0.078 C 
ATOM      2  C8  <0> d   1      -1.189  -4.799   0.686  0.00  0.00     0.246 C 
ATOM      3  N9  <0> d   1      -1.595  -6.056   0.048  0.00  0.00    -0.074 N 
ATOM      4  H10 <0> d   1      -2.438  -6.396   0.486  0.00  0.00     0.277 HD
ATOM      5  H11 <0> d   1      -1.769  -5.892  -0.932  0.00  0.00     0.277 HD
ATOM      6  C12 <0> d   1      -0.540  -7.061   0.187  0.00  0.00     0.237 C 
ATOM      7  C13 <0> d   1       0.160  -6.827   1.529  0.00  0.00     0.068 C 
ATOM      8  C14 <0> d   1       1.373  -5.950   1.352  0.00  0.00    -0.025 A 
ATOM      9  C15 <0> d   1       1.315  -4.759   0.666  0.00  0.00    -0.037 A 
ATOM     10  C16 <0> d   1       2.449  -3.962   0.571  0.00  0.00     0.048 A 
ATOM     11  C17 <0> d   1       3.644  -4.371   1.134  0.00  0.00     0.101 A 
ATOM     12  C19 <0> d   1       3.709  -5.590   1.803  0.00  0.00     0.121 A 
ATOM     13  C21 <0> d   1       2.572  -6.372   1.912  0.00  0.00     0.076 A 
ATOM     14 Cl22 <0> d   1       2.647  -7.890   2.749  0.00  0.00    -0.081 Cl
ENDROOT
BRANCH   1  15
ATOM     15  C5  <0> d   1       0.040  -2.770  -0.013  0.00  0.00    -0.048 A 
ATOM     16  C4  <0> d   1       0.025  -2.074  -1.208  0.00  0.00     0.011 A 
ATOM     17  C3  <0> d   1       0.006  -0.692  -1.203  0.00  0.00     0.037 A 
ATOM     18  C2  <0> d   1       0.002  -0.004   0.002  0.00  0.00     0.065 A 
ATOM     19  C24 <0> d   1       0.023  -0.705   1.199  0.00  0.00     0.037 A 
ATOM     20  C23 <0> d   1       0.037  -2.087   1.189  0.00  0.00     0.011 A 
BRANCH  18  21
ATOM     21  O1  <0> d   1      -0.016   1.355   0.009  0.00  0.00    -0.361 OA
ATOM     22  H25 <0> d   1       0.862   1.760   0.003  0.00  0.00     0.217 HD
ENDBRANCH  18  21
ENDBRANCH   1  15
BRANCH  11  23
ATOM     23  O18 <0> d   1       4.750  -3.586   1.034  0.00  0.00    -0.358 OA
ATOM     24  H35 <0> d   1       4.851  -2.957   1.761  0.00  0.00     0.217 HD
ENDBRANCH  11  23
BRANCH  12  25
ATOM     25  O20 <0> d   1       4.883  -6.009   2.348  0.00  0.00    -0.356 OA
ATOM     26  H36 <0> d   1       5.015  -5.725   3.263  0.00  0.00     0.218 HD
ENDBRANCH  12  25
TORSDOF 4
