REMARK  9 active torsions:
REMARK  status: ('A' for Active; 'I' for Inactive)
REMARK    1  A    between atoms: C2_2  and  C3_3 
REMARK    2  A    between atoms: C2_2  and  C20_20 
REMARK    3  A    between atoms: C4_4  and  C5_5 
REMARK    4  A    between atoms: C8_8  and  O9_9 
REMARK    5  A    between atoms: C15_15  and  O16_16 
REMARK    6  A    between atoms: C23_23  and  O24_24 
REMARK    7  A    between atoms: O24_24  and  C25_25 
REMARK    8  A    between atoms: C25_25  and  C26_26 
REMARK    9  A    between atoms: C26_26  and  N27_27 
ROOT
ATOM      1  C3  <0> d   1       1.268   1.909  -0.004  0.00  0.00     0.044 A 
ATOM      2  C4  <0> d   1       1.828   2.401   1.143  0.00  0.00     0.031 A 
ATOM      3  S12 <0> d   1       3.308   3.271   0.793  0.00  0.00    -0.088 SA
ATOM      4  C13 <0> d   1       3.174   2.969  -0.935  0.00  0.00     0.019 A 
ATOM      5  C14 <0> d   1       4.019   3.358  -1.980  0.00  0.00     0.056 A 
ATOM      6  C15 <0> d   1       3.725   3.010  -3.282  0.00  0.00     0.067 A 
ATOM      7  C17 <0> d   1       2.582   2.268  -3.563  0.00  0.00     0.037 A 
ATOM      8  C18 <0> d   1       1.744   1.879  -2.550  0.00  0.00     0.016 A 
ATOM      9  C19 <0> d   1       2.032   2.220  -1.213  0.00  0.00    -0.003 A 
ENDROOT
BRANCH   1  10
ATOM     10  C2  <0> d   1       0.025   1.138  -0.019  0.00  0.00     0.194 C 
ATOM     11  O1  <0> d   1       0.062  -0.079  -0.008  0.00  0.00    -0.287 OA
BRANCH  10  12
ATOM     12  C20 <0> d   1      -1.276   1.836  -0.054  0.00  0.00     0.015 A 
ATOM     13  C35 <0> d   1      -2.465   1.108   0.038  0.00  0.00     0.018 A 
ATOM     14  C34 <0> d   1      -3.676   1.763   0.010  0.00  0.00     0.037 A 
ATOM     15  C23 <0> d   1      -3.717   3.146  -0.120  0.00  0.00     0.068 A 
ATOM     16  C22 <0> d   1      -2.537   3.874  -0.217  0.00  0.00     0.037 A 
ATOM     17  C21 <0> d   1      -1.322   3.227  -0.185  0.00  0.00     0.018 A 
BRANCH  15  18
ATOM     18  O24 <0> d   1      -4.913   3.788  -0.152  0.00  0.00    -0.350 OA
BRANCH  18  19
ATOM     19  C25 <0> d   1      -6.086   2.979  -0.047  0.00  0.00     0.203 C 
BRANCH  19  20
ATOM     20  C26 <0> d   1      -7.328   3.871  -0.102  0.00  0.00     0.261 C 
BRANCH  20  21
ATOM     21  N27 <0> d   1      -7.413   4.510  -1.422  0.00  0.00    -0.069 N 
ATOM     22  H28 <0> d   1      -6.554   5.003  -1.612  0.00  0.00     0.280 HD
ATOM     23  C33 <0> d   1      -7.624   3.483  -2.448  0.00  0.00     0.235 C 
ATOM     24  C32 <0> d   1      -7.631   4.134  -3.833  0.00  0.00     0.028 C 
ATOM     25  C31 <0> d   1      -8.764   5.162  -3.900  0.00  0.00     0.003 C 
ATOM     26  C30 <0> d   1      -8.577   6.187  -2.778  0.00  0.00     0.028 C 
ATOM     27  C29 <0> d   1      -8.533   5.459  -1.432  0.00  0.00     0.235 C 
ENDBRANCH  20  21
ENDBRANCH  19  20
ENDBRANCH  18  19
ENDBRANCH  15  18
ENDBRANCH  10  12
ENDBRANCH   1  10
BRANCH   2  28
ATOM     28  C5  <0> d   1       1.264   2.222   2.493  0.00  0.00    -0.018 A 
ATOM     29  C11 <0> d   1       1.139   3.318   3.352  0.00  0.00     0.015 A 
ATOM     30  C10 <0> d   1       0.605   3.148   4.610  0.00  0.00     0.037 A 
ATOM     31  C8  <0> d   1       0.201   1.887   5.030  0.00  0.00     0.065 A 
ATOM     32  C7  <0> d   1       0.329   0.793   4.183  0.00  0.00     0.037 A 
ATOM     33  C6  <0> d   1       0.856   0.955   2.920  0.00  0.00     0.015 A 
BRANCH  31  34
ATOM     34  O9  <0> d   1      -0.320   1.722   6.274  0.00  0.00    -0.361 OA
ATOM     35  H38 <0> d   1       0.339   1.522   6.952  0.00  0.00     0.217 HD
ENDBRANCH  31  34
ENDBRANCH   2  28
BRANCH   6  36
ATOM     36  O16 <0> d   1       4.552   3.393  -4.291  0.00  0.00    -0.361 OA
ATOM     37  H42 <0> d   1       5.253   2.757  -4.488  0.00  0.00     0.217 HD
ENDBRANCH   6  36
TORSDOF 9
