REMARK  5 active torsions:
REMARK  status: ('A' for Active; 'I' for Inactive)
REMARK    1  A    between atoms: N2_2  and  C4_4 
REMARK    2  A    between atoms: C7_7  and  O8_8 
REMARK    3  A    between atoms: C17_15  and  N19_16 
REMARK    4  A    between atoms: C24_21  and  C25_22 
REMARK       I    between atoms: C25_22  and  N26_23 
REMARK    5  A    between atoms: C30_27  and  O31_28 
ROOT
ATOM      1  C4  ZIN A   1      -0.068   0.011  -0.407  0.00  0.00     0.017 A 
ATOM      2  C5  ZIN A   1      -0.798   0.219   0.760  0.00  0.00     0.027 A 
ATOM      3  C6  ZIN A   1      -1.865  -0.600   1.071  0.00  0.00     0.039 A 
ATOM      4  C7  ZIN A   1      -2.222  -1.635   0.220  0.00  0.00     0.079 A 
ATOM      5  C9  ZIN A   1      -1.501  -1.841  -0.963  0.00  0.00     0.042 A 
ATOM      6  C10 ZIN A   1      -0.415  -1.014  -1.268  0.00  0.00    -0.020 A 
ATOM      7  C11 ZIN A   1       0.384  -1.264  -2.521  0.00  0.00     0.051 C 
ATOM      8  C12 ZIN A   1      -0.543  -1.752  -3.631  0.00  0.00     0.030 C 
ATOM      9  C14 ZIN A   1       0.276  -2.127  -4.869  0.00  0.00     0.021 C 
ATOM     10  C15 ZIN A   1      -0.675  -2.738  -5.895  0.00  0.00     0.077 C 
ATOM     11  C17 ZIN A   1      -0.051  -2.815  -7.274  0.00  0.00     0.290 C 
ATOM     12  C22 ZIN A   1       0.978  -3.901  -7.372  0.00  0.00     0.138 C 
ATOM     13  O23 ZIN A   1       1.897  -3.837  -8.348  0.00  0.00    -0.193 OA
ATOM     14  C24 ZIN A   1       1.013  -4.957  -6.497  0.00  0.00     0.115 C 
ATOM     15  C28 ZIN A   1       0.047  -5.042  -5.403  0.00  0.00     0.210 C 
ATOM     16  O29 ZIN A   1       0.198  -5.847  -4.507  0.00  0.00    -0.288 OA
ATOM     17  C30 ZIN A   1      -1.132  -4.115  -5.418  0.00  0.00     0.194 C 
ATOM     18  C32 ZIN A   1      -1.629  -3.994  -4.002  0.00  0.00     0.201 C 
ATOM     19  O33 ZIN A   1      -2.305  -4.898  -3.548  0.00  0.00    -0.289 OA
ATOM     20  C34 ZIN A   1      -1.335  -2.946  -3.172  0.00  0.00     0.033 C 
ATOM     21  C35 ZIN A   1      -1.858  -2.932  -1.882  0.00  0.00     0.131 C 
ATOM     22  O36 ZIN A   1      -2.714  -3.899  -1.484  0.00  0.00    -0.190 OA
ENDROOT
BRANCH  14  23
ATOM     23  C25 ZIN A   1       2.028  -6.010  -6.661  0.00  0.00     0.255 C 
ATOM     24  N26 ZIN A   1       1.987  -7.112  -5.885  0.00  0.00    -0.366 N 
ATOM     25  H56 ZIN A   1       1.249  -7.245  -5.270  0.00  0.00     0.159 HD
ATOM     26  H57 ZIN A   1       2.696  -7.772  -5.942  0.00  0.00     0.159 HD
ATOM     27  O27 ZIN A   1       2.903  -5.887  -7.496  0.00  0.00    -0.268 OA
ENDBRANCH  14  23
BRANCH  11  28
ATOM     28  N19 ZIN A   1      -1.108  -3.072  -8.261  0.00  0.00     0.091 N 
ATOM     29  C20 ZIN A   1      -2.041  -1.941  -8.341  0.00  0.00     0.310 C 
ATOM     30  C21 ZIN A   1      -0.535  -3.376  -9.579  0.00  0.00     0.310 C 
ENDBRANCH  11  28
BRANCH  17  31
ATOM     31  O31 ZIN A   1      -2.152  -4.623  -6.279  0.00  0.00    -0.373 OA
ATOM     32  H58 ZIN A   1      -2.531  -5.464  -5.987  0.00  0.00     0.211 HD
ENDBRANCH  17  31
BRANCH   4  33
ATOM     33  O8  ZIN A   1      -3.267  -2.443   0.531  0.00  0.00    -0.360 OA
ATOM     34  H45 ZIN A   1      -4.118  -2.135   0.192  0.00  0.00     0.217 HD
ENDBRANCH   4  33
BRANCH   1  35
ATOM     35  N2  ZIN A   1       1.014   0.844  -0.713  0.00  0.00    -0.291 NA
ATOM     36  C1  ZIN A   1       0.585   2.244  -0.830  0.00  0.00     0.116 C 
ATOM     37  C3  ZIN A   1       2.084   0.704   0.284  0.00  0.00     0.116 C 
ENDBRANCH   1  35
TORSDOF 5
