REMARK  6 active torsions:
REMARK  status: ('A' for Active; 'I' for Inactive)
REMARK    1  A    between atoms: C2_2  and  N3_3 
REMARK    2  A    between atoms: C5_5  and  C7_6 
REMARK    3  A    between atoms: C7_6  and  C8_7 
REMARK    4  A    between atoms: C8_7  and  N9_8 
REMARK    5  A    between atoms: C15_14  and  C16_15 
REMARK    6  A    between atoms: C15_14  and  C22_21 
ROOT
ATOM      1  N3  <0> d   1       1.049  -1.005   0.908  0.00  0.00    -0.351 N 
ATOM      2  C4  <0> d   1       2.464  -1.023   1.296  0.00  0.00     0.132 C 
ATOM      3  C5  <0> d   1       2.483  -0.682   2.803  0.00  0.00     0.032 C 
ATOM      4  C15 <0> d   1       1.076  -1.143   3.248  0.00  0.00     0.100 C 
ATOM      5  C28 <0> d   1       0.246  -1.071   1.985  0.00  0.00     0.238 C 
ATOM      6  O29 <0> d   1      -0.966  -1.079   1.948  0.00  0.00    -0.272 OA
ENDROOT
BRANCH   4   7
ATOM      7  C16 <0> d   1       1.125  -2.554   3.774  0.00  0.00    -0.035 A 
ATOM      8  C21 <0> d   1       2.034  -2.894   4.759  0.00  0.00     0.009 A 
ATOM      9  C20 <0> d   1       2.076  -4.188   5.244  0.00  0.00     0.001 A 
ATOM     10  C19 <0> d   1       1.216  -5.144   4.737  0.00  0.00     0.000 A 
ATOM     11  C18 <0> d   1       0.311  -4.806   3.749  0.00  0.00     0.001 A 
ATOM     12  C17 <0> d   1       0.266  -3.511   3.267  0.00  0.00     0.009 A 
ENDBRANCH   4   7
BRANCH   4  13
ATOM     13  C22 <0> d   1       0.522  -0.211   4.295  0.00  0.00    -0.035 A 
ATOM     14  C27 <0> d   1      -0.568   0.587   4.003  0.00  0.00     0.009 A 
ATOM     15  C26 <0> d   1      -1.079   1.439   4.964  0.00  0.00     0.001 A 
ATOM     16  C25 <0> d   1      -0.493   1.500   6.215  0.00  0.00     0.000 A 
ATOM     17  C24 <0> d   1       0.601   0.706   6.506  0.00  0.00     0.001 A 
ATOM     18  C23 <0> d   1       1.108  -0.149   5.545  0.00  0.00     0.009 A 
ENDBRANCH   4  13
BRANCH   3  19
ATOM     19  C7  <0> d   1       2.662   0.822   3.021  0.00  0.00     0.038 C 
BRANCH  19  20
ATOM     20  C8  <0> d   1       4.038   1.252   2.508  0.00  0.00     0.273 C 
BRANCH  20  21
ATOM     21  N9  <0> d   1       4.210   2.696   2.718  0.00  0.00     0.092 N 
ATOM     22  C14 <0> d   1       5.411   3.189   2.029  0.00  0.00     0.298 C 
ATOM     23  C13 <0> d   1       5.585   4.681   2.322  0.00  0.00     0.198 C 
ATOM     24  O12 <0> d   1       4.404   5.381   1.920  0.00  0.00    -0.388 OA
ATOM     25  C11 <0> d   1       3.215   4.927   2.572  0.00  0.00     0.198 C 
ATOM     26  C10 <0> d   1       3.018   3.437   2.281  0.00  0.00     0.298 C 
ENDBRANCH  20  21
ENDBRANCH  19  20
ENDBRANCH   3  19
BRANCH   1  27
ATOM     27  C2  <0> d   1       0.571  -0.920  -0.474  0.00  0.00     0.121 C 
ATOM     28  C1  <0> d   1       0.405   0.549  -0.867  0.00  0.00     0.026 C 
ENDBRANCH   1  27
TORSDOF 6
