REMARK  1 active torsions:
REMARK  status: ('A' for Active; 'I' for Inactive)
REMARK    1  A    between atoms: N15_14  and  C16_15 
ROOT
ATOM      1  O1  ZIN A   1       0.114   0.038   0.635  0.00  0.00    -0.267 OA
ATOM      2  C2  ZIN A   1       0.035   1.216   0.344  0.00  0.00     0.254 C 
ATOM      3  C3  ZIN A   1      -1.274   1.904   0.370  0.00  0.00     0.039 A 
ATOM      4  C4  ZIN A   1      -2.365   1.315   1.004  0.00  0.00     0.017 A 
ATOM      5  C5  ZIN A   1      -3.574   1.981   1.030  0.00  0.00     0.002 A 
ATOM      6  C6  ZIN A   1      -3.694   3.217   0.429  0.00  0.00     0.007 A 
ATOM      7  C7  ZIN A   1      -2.611   3.812  -0.213  0.00  0.00    -0.050 A 
ATOM      8  C8  ZIN A   1      -1.404   3.155  -0.241  0.00  0.00    -0.030 A 
ATOM      9  C9  ZIN A   1      -0.202   3.742  -0.937  0.00  0.00     0.038 C 
ATOM     10  C11 ZIN A   1      -0.330   5.268  -0.953  0.00  0.00     0.011 C 
ATOM     11  C12 ZIN A   1      -1.637   5.643  -1.648  0.00  0.00     0.005 C 
ATOM     12  C13 ZIN A   1      -2.833   5.150  -0.855  0.00  0.00     0.039 C 
ATOM     13  C14 ZIN A   1       1.079   3.354  -0.201  0.00  0.00     0.136 C 
ATOM     14  N15 ZIN A   1       1.139   1.905   0.001  0.00  0.00    -0.341 N 
ENDROOT
BRANCH  14  15
ATOM     15  C16 ZIN A   1       2.411   1.200  -0.175  0.00  0.00     0.117 C 
ATOM     16  C23 ZIN A   1       3.537   2.217  -0.402  0.00  0.00     0.013 C 
ATOM     17  C22 ZIN A   1       4.859   1.452  -0.542  0.00  0.00     0.034 C 
ATOM     18  C24 ZIN A   1       3.627   3.116   0.838  0.00  0.00     0.034 C 
ATOM     19  C21 ZIN A   1       5.094   0.629   0.727  0.00  0.00     0.235 C 
ATOM     20  N19 ZIN A   1       3.990   0.833   1.668  0.00  0.00    -0.069 N 
ATOM     21  C18 ZIN A   1       2.724   0.385   1.082  0.00  0.00     0.260 C 
ATOM     22  H20 ZIN A   1       4.170   0.285   2.495  0.00  0.00     0.280 HD
ATOM     23  C25 ZIN A   1       3.908   2.243   2.055  0.00  0.00     0.235 C 
ENDBRANCH  14  15
TORSDOF 1
