REMARK  6 active torsions:
REMARK  status: ('A' for Active; 'I' for Inactive)
REMARK    1  A    between atoms: N2_2  and  C5_5 
REMARK    2  A    between atoms: C5_5  and  C6_6 
REMARK    3  A    between atoms: C6_6  and  O7_7 
REMARK    4  A    between atoms: O7_7  and  C8_8 
REMARK    5  A    between atoms: C8_8  and  C9_9 
REMARK    6  A    between atoms: C8_8  and  C15_15 
ROOT
ATOM      1  C8  ZIN A   1      -2.026  -0.448  -3.659  0.00  0.00     0.187 C 
ENDROOT
BRANCH   1   2
ATOM      2  O7  ZIN A   1      -1.444  -0.758  -2.391  0.00  0.00    -0.375 OA
BRANCH   2   3
ATOM      3  C6  ZIN A   1      -2.078  -0.110  -1.286  0.00  0.00     0.196 C 
BRANCH   3   4
ATOM      4  C5  ZIN A   1      -1.376  -0.512   0.012  0.00  0.00     0.260 C 
BRANCH   4   5
ATOM      5  N2  ZIN A   1       0.002  -0.004   0.002  0.00  0.00    -0.077 N 
ATOM      6  C1  ZIN A   1      -0.018   1.465   0.010  0.00  0.00     0.269 C 
ATOM      7  H3  ZIN A   1       0.474  -0.330  -0.828  0.00  0.00     0.279 HD
ATOM      8  C4  ZIN A   1       0.713  -0.491   1.192  0.00  0.00     0.269 C 
ENDBRANCH   4   5
ENDBRANCH   3   4
ENDBRANCH   2   3
ENDBRANCH   1   2
BRANCH   1   9
ATOM      9  C9  ZIN A   1      -0.967  -0.518  -4.728  0.00  0.00    -0.025 A 
ATOM     10  C14 ZIN A   1      -0.946   0.420  -5.743  0.00  0.00     0.010 A 
ATOM     11  C13 ZIN A   1       0.028   0.359  -6.721  0.00  0.00     0.001 A 
ATOM     12  C12 ZIN A   1       0.976  -0.647  -6.691  0.00  0.00     0.000 A 
ATOM     13  C11 ZIN A   1       0.952  -1.589  -5.679  0.00  0.00     0.001 A 
ATOM     14  C10 ZIN A   1      -0.020  -1.525  -4.698  0.00  0.00     0.010 A 
ENDBRANCH   1   9
BRANCH   1  15
ATOM     15  C15 ZIN A   1      -3.118  -1.441  -3.966  0.00  0.00    -0.025 A 
ATOM     16  C20 ZIN A   1      -4.249  -1.035  -4.650  0.00  0.00     0.010 A 
ATOM     17  C19 ZIN A   1      -5.248  -1.947  -4.936  0.00  0.00     0.001 A 
ATOM     18  C18 ZIN A   1      -5.120  -3.262  -4.531  0.00  0.00     0.000 A 
ATOM     19  C17 ZIN A   1      -3.991  -3.667  -3.843  0.00  0.00     0.001 A 
ATOM     20  C16 ZIN A   1      -2.990  -2.756  -3.561  0.00  0.00     0.010 A 
ENDBRANCH   1  15
TORSDOF 6
