REMARK  3 active torsions:
REMARK  status: ('A' for Active; 'I' for Inactive)
REMARK    1  A    between atoms: C2_2  and  O3_3 
REMARK       I    between atoms: C2_2  and  N14_13 
REMARK    2  A    between atoms: O3_3  and  C4_4 
REMARK    3  A    between atoms: C23_22  and  C25_23 
ROOT
ATOM      1  O1  ZIN A   1      -0.211  -0.377  -0.075  0.00  0.00    -0.238 OA
ATOM      2  C2  ZIN A   1      -0.035   0.822   0.015  0.00  0.00     0.364 C 
ATOM      3  N14 ZIN A   1      -1.093   1.655   0.069  0.00  0.00    -0.315 N 
ATOM      4  C15 ZIN A   1      -0.913   3.113   0.172  0.00  0.00     0.134 C 
ATOM      5  C16 ZIN A   1      -1.477   3.747  -1.099  0.00  0.00     0.059 C 
ATOM      6  C17 ZIN A   1      -2.840   3.190  -1.417  0.00  0.00    -0.048 A 
ATOM      7  C18 ZIN A   1      -3.660   3.933  -2.257  0.00  0.00     0.008 A 
ATOM      8  C19 ZIN A   1      -4.916   3.475  -2.596  0.00  0.00     0.001 A 
ATOM      9  C20 ZIN A   1      -5.365   2.267  -2.098  0.00  0.00     0.001 A 
ATOM     10  C21 ZIN A   1      -4.554   1.528  -1.261  0.00  0.00     0.010 A 
ATOM     11  C22 ZIN A   1      -3.292   1.990  -0.914  0.00  0.00    -0.024 A 
ATOM     12  C23 ZIN A   1      -2.468   1.148   0.020  0.00  0.00     0.156 C 
ENDROOT
BRANCH   2  13
ATOM     13  O3  ZIN A   1       1.216   1.317   0.056  0.00  0.00    -0.296 OA
BRANCH  13  14
ATOM     14  C4  ZIN A   1       2.306   0.361  -0.012  0.00  0.00     0.163 C 
ATOM     15  C11 ZIN A   1       3.519   0.908   0.752  0.00  0.00     0.020 C 
ATOM     16  C10 ZIN A   1       3.959   2.219   0.079  0.00  0.00     0.035 C 
ATOM     17  C12 ZIN A   1       4.665  -0.105   0.632  0.00  0.00     0.035 C 
ATOM     18  C9  ZIN A   1       4.300   1.934  -1.385  0.00  0.00     0.235 C 
ATOM     19  N7  ZIN A   1       4.101   0.513  -1.679  0.00  0.00    -0.069 N 
ATOM     20  C6  ZIN A   1       2.700   0.136  -1.474  0.00  0.00     0.267 C 
ATOM     21  H8  ZIN A   1       4.336   0.351  -2.647  0.00  0.00     0.280 HD
ATOM     22  C13 ZIN A   1       4.983  -0.306  -0.845  0.00  0.00     0.235 C 
ENDBRANCH  13  14
ENDBRANCH   2  13
BRANCH  12  23
ATOM     23  C25 ZIN A   1      -3.065   1.202   1.403  0.00  0.00    -0.031 A 
ATOM     24  C30 ZIN A   1      -3.402   0.032   2.056  0.00  0.00     0.009 A 
ATOM     25  C29 ZIN A   1      -3.945   0.081   3.326  0.00  0.00     0.001 A 
ATOM     26  C28 ZIN A   1      -4.160   1.302   3.939  0.00  0.00     0.000 A 
ATOM     27  C27 ZIN A   1      -3.827   2.472   3.284  0.00  0.00     0.001 A 
ATOM     28  C26 ZIN A   1      -3.280   2.422   2.015  0.00  0.00     0.009 A 
ENDBRANCH  12  23
TORSDOF 3
