REMARK  12 active torsions:
REMARK  status: ('A' for Active; 'I' for Inactive)
REMARK    1  A    between atoms: C2_2  and  C3_3 
REMARK    2  A    between atoms: C25_25  and  C26_26 
REMARK    3  A    between atoms: C26_26  and  O28_28 
REMARK    4  A    between atoms: C30_30  and  C32_31 
REMARK    5  A    between atoms: C32_31  and  O34_33 
REMARK    6  A    between atoms: C40_39  and  C41_40 
REMARK    7  A    between atoms: C41_40  and  C42_41 
REMARK    8  A    between atoms: C42_41  and  C43_42 
REMARK    9  A    between atoms: C43_42  and  O45_44 
REMARK   10  A    between atoms: C47_46  and  C48_47 
REMARK   11  A    between atoms: C48_47  and  C49_48 
REMARK   12  A    between atoms: C49_48  and  C50_49 
ROOT
ATOM      1  C3  ZIN A   1       1.288  -0.724  -0.014  0.00  0.00    -0.002 A 
ATOM      2  C4  ZIN A   1       2.376  -0.483  -0.897  0.00  0.00     0.045 A 
ATOM      3  C5  ZIN A   1       2.396   0.522  -1.843  0.00  0.00     0.062 C 
ATOM      4  C6  ZIN A   1       3.471   0.715  -2.722  0.00  0.00     0.066 A 
ATOM      5  N7  ZIN A   1       4.534  -0.077  -2.891  0.00  0.00    -0.248 NA
ATOM      6  C8  ZIN A   1       5.286   0.391  -3.889  0.00  0.00     0.066 A 
ATOM      7  C9  ZIN A   1       6.439  -0.189  -4.438  0.00  0.00     0.062 C 
ATOM      8  C10 ZIN A   1       7.054  -1.296  -3.881  0.00  0.00     0.041 A 
ATOM      9  N11 ZIN A   1       6.690  -1.980  -2.735  0.00  0.00    -0.355 N 
ATOM     10  C12 ZIN A   1       7.661  -2.917  -2.471  0.00  0.00     0.041 A 
ATOM     11  C13 ZIN A   1       7.780  -3.743  -1.360  0.00  0.00     0.058 C 
ATOM     12  C14 ZIN A   1       6.850  -3.812  -0.341  0.00  0.00     0.051 C 
ATOM     13  N15 ZIN A   1       5.673  -3.210  -0.258  0.00  0.00    -0.252 NA
ATOM     14  C16 ZIN A   1       4.923  -3.608   0.774  0.00  0.00     0.067 C 
ATOM     15  C17 ZIN A   1       3.651  -3.166   1.132  0.00  0.00     0.062 C 
ATOM     16  C18 ZIN A   1       2.957  -2.162   0.468  0.00  0.00     0.041 A 
ATOM     17  C19 ZIN A   1       1.662  -1.754   0.831  0.00  0.00    -0.023 A 
ATOM     18  C20 ZIN A   1       0.826  -2.338   1.940  0.00  0.00     0.051 C 
ATOM     19  N21 ZIN A   1       3.364  -1.400  -0.602  0.00  0.00    -0.355 N 
ATOM     20  C22 ZIN A   1       5.645  -4.632   1.520  0.00  0.00    -0.014 C 
ATOM     21  C23 ZIN A   1       5.313  -5.459   2.528  0.00  0.00     0.011 C 
ATOM     22  C24 ZIN A   1       6.259  -6.455   2.879  0.00  0.00     0.015 C 
ATOM     23  C25 ZIN A   1       7.289  -6.764   2.050  0.00  0.00     0.032 C 
ATOM     24  C30 ZIN A   1       7.457  -6.063   0.714  0.00  0.00     0.143 C 
ATOM     25  C36 ZIN A   1       7.046  -4.611   0.922  0.00  0.00     0.047 C 
ATOM     26  C37 ZIN A   1       8.031  -3.899   1.855  0.00  0.00     0.029 C 
ATOM     27  C38 ZIN A   1       8.566  -2.916  -3.552  0.00  0.00    -0.027 A 
ATOM     28  C39 ZIN A   1       9.739  -3.846  -3.725  0.00  0.00     0.051 C 
ATOM     29  C40 ZIN A   1       8.197  -1.929  -4.411  0.00  0.00    -0.023 A 
ATOM     30  C47 ZIN A   1       4.722   1.619  -4.333  0.00  0.00    -0.021 A 
ATOM     31  C53 ZIN A   1       3.596   1.820  -3.610  0.00  0.00    -0.025 A 
ATOM     32  C54 ZIN A   1       2.654   2.990  -3.723  0.00  0.00     0.051 C 
ATOM     33  H60 ZIN A   1       5.890  -1.825  -2.209  0.00  0.00     0.166 HD
ATOM     34  H66 ZIN A   1       4.207  -1.492  -1.073  0.00  0.00     0.166 HD
ENDROOT
BRANCH  29  35
ATOM     35  C41 ZIN A   1       8.887  -1.573  -5.702  0.00  0.00     0.051 C 
BRANCH  35  36
ATOM     36  C42 ZIN A   1       8.196  -2.290  -6.864  0.00  0.00     0.116 C 
BRANCH  36  37
ATOM     37  C43 ZIN A   1       8.887  -1.934  -8.155  0.00  0.00     0.258 C 
ATOM     38  O44 ZIN A   1       9.835  -1.185  -8.147  0.00  0.00    -0.265 OA
BRANCH  37  39
ATOM     39  O45 ZIN A   1       8.449  -2.450  -9.315  0.00  0.00    -0.326 OA
ATOM     40  C46 ZIN A   1       9.163  -2.064 -10.519  0.00  0.00     0.213 C 
ENDBRANCH  37  39
ENDBRANCH  36  37
ENDBRANCH  35  36
ENDBRANCH  29  35
BRANCH  30  41
ATOM     41  C48 ZIN A   1       5.273   2.524  -5.405  0.00  0.00     0.052 C 
BRANCH  41  42
ATOM     42  C49 ZIN A   1       6.319   3.460  -4.795  0.00  0.00     0.118 C 
BRANCH  42  43
ATOM     43  C50 ZIN A   1       6.869   4.365  -5.867  0.00  0.00     0.172 C 
ATOM     44  O51 ZIN A   1       6.463   4.270  -7.013  0.00  0.00    -0.648 OA
ATOM     45  O52 ZIN A   1       7.721   5.192  -5.589  0.00  0.00    -0.648 OA
ENDBRANCH  42  43
ENDBRANCH  41  42
ENDBRANCH  30  41
BRANCH  24  46
ATOM     46  C32 ZIN A   1       6.569  -6.707  -0.320  0.00  0.00     0.268 C 
ATOM     47  O33 ZIN A   1       5.719  -6.054  -0.877  0.00  0.00    -0.264 OA
BRANCH  46  48
ATOM     48  O34 ZIN A   1       6.724  -8.005  -0.622  0.00  0.00    -0.326 OA
ATOM     49  C35 ZIN A   1       5.834  -8.559  -1.627  0.00  0.00     0.213 C 
ENDBRANCH  46  48
ENDBRANCH  24  46
BRANCH  23  50
ATOM     50  C26 ZIN A   1       8.222  -7.755   2.437  0.00  0.00     0.289 C 
ATOM     51  O27 ZIN A   1       8.097  -8.324   3.505  0.00  0.00    -0.260 OA
BRANCH  50  52
ATOM     52  O28 ZIN A   1       9.250  -8.070   1.621  0.00  0.00    -0.323 OA
ATOM     53  C29 ZIN A   1      10.153  -9.080   2.075  0.00  0.00     0.213 C 
ENDBRANCH  50  52
ENDBRANCH  23  50
BRANCH   1  54
ATOM     54  C2  ZIN A   1       0.002  -0.004   0.002  0.00  0.00     0.004 C 
ATOM     55  C1  ZIN A   1      -0.016   1.325   0.009  0.00  0.00     0.012 C 
ENDBRANCH   1  54
TORSDOF 12
