REMARK  5 active torsions:
REMARK  status: ('A' for Active; 'I' for Inactive)
REMARK    1  A    between atoms: C3_3  and  C4_4 
REMARK    2  A    between atoms: C4_4  and  C5_5 
REMARK    3  A    between atoms: C5_5  and  N6_6 
REMARK    4  A    between atoms: C10_10  and  C11_11 
REMARK    5  A    between atoms: C29_29  and  O31_30 
ROOT
ATOM      1  N6  ZIN A   1      -4.311   0.842  -1.392  0.00  0.00    -0.071 N 
ATOM      2  H7  ZIN A   1      -4.945   0.351  -0.780  0.00  0.00     0.279 HD
ATOM      3  C8  ZIN A   1      -4.867   0.872  -2.750  0.00  0.00     0.235 C 
ATOM      4  C9  ZIN A   1      -6.253   1.520  -2.724  0.00  0.00     0.038 C 
ATOM      5  C10 ZIN A   1      -6.132   2.950  -2.189  0.00  0.00     0.044 C 
ATOM      6  C21 ZIN A   1      -5.482   2.912  -0.803  0.00  0.00     0.038 C 
ATOM      7  C22 ZIN A   1      -4.125   2.213  -0.902  0.00  0.00     0.235 C 
ENDROOT
BRANCH   1   8
ATOM      8  C5  ZIN A   1      -3.015   0.150  -1.410  0.00  0.00     0.239 C 
BRANCH   8   9
ATOM      9  C4  ZIN A   1      -2.495   0.005   0.022  0.00  0.00     0.074 C 
BRANCH   9  10
ATOM     10  C3  ZIN A   1      -1.166  -0.705   0.004  0.00  0.00     0.036 A 
ATOM     11  C2  ZIN A   1       0.002  -0.004   0.002  0.00  0.00     0.044 A 
ATOM     12  C1  ZIN A   1      -0.018   1.503   0.010  0.00  0.00     0.071 C 
ATOM     13  N33 ZIN A   1       1.161  -0.658  -0.013  0.00  0.00    -0.237 NA
ATOM     14  C32 ZIN A   1       1.232  -1.972  -0.023  0.00  0.00     0.138 A 
ATOM     15  N25 ZIN A   1       0.117  -2.718  -0.043  0.00  0.00    -0.300 N 
ATOM     16  C29 ZIN A   1       2.616  -2.575  -0.017  0.00  0.00     0.188 C 
ATOM     17  C23 ZIN A   1      -1.098  -2.110  -0.012  0.00  0.00     0.257 A 
ATOM     18  C26 ZIN A   1       0.122  -4.180  -0.111  0.00  0.00     0.134 C 
ATOM     19  O24 ZIN A   1      -2.119  -2.776   0.001  0.00  0.00    -0.267 OA
ATOM     20  C27 ZIN A   1       1.472  -4.746   0.320  0.00  0.00     0.023 C 
ATOM     21  C28 ZIN A   1       2.569  -4.030  -0.477  0.00  0.00     0.041 C 
BRANCH  16  22
ATOM     22  O31 ZIN A   1       3.458  -1.828  -0.898  0.00  0.00    -0.388 OA
ATOM     23  H59 ZIN A   1       3.536  -0.892  -0.668  0.00  0.00     0.210 HD
ENDBRANCH  16  22
ENDBRANCH   9  10
ENDBRANCH   8   9
ENDBRANCH   1   8
BRANCH   5  24
ATOM     24  C11 ZIN A   1      -7.502   3.567  -2.087  0.00  0.00     0.079 A 
ATOM     25  C20 ZIN A   1      -7.965   4.772  -2.781  0.00  0.00     0.027 A 
ATOM     26  C14 ZIN A   1      -9.300   4.968  -2.389  0.00  0.00     0.116 A 
ATOM     27  C19 ZIN A   1      -7.367   5.655  -3.684  0.00  0.00     0.019 A 
ATOM     28  O13 ZIN A   1      -9.611   3.977  -1.530  0.00  0.00    -0.212 OA
ATOM     29  C15 ZIN A   1     -10.009   6.048  -2.897  0.00  0.00     0.082 A 
ATOM     30  N12 ZIN A   1      -8.489   3.133  -1.365  0.00  0.00    -0.131 NA
ATOM     31  C16 ZIN A   1      -9.399   6.913  -3.784  0.00  0.00     0.119 A 
ATOM     32  F17 ZIN A   1     -10.091   7.964  -4.278  0.00  0.00    -0.206 F 
ATOM     33  C18 ZIN A   1      -8.080   6.713  -4.173  0.00  0.00     0.043 A 
ENDBRANCH   5  24
TORSDOF 5
