REMARK  1 active torsions:
REMARK  status: ('A' for Active; 'I' for Inactive)
REMARK    1  A    between atoms: N6_6  and  C7_7 
ROOT
ATOM      1  C1  ZIN A   1      -0.018   1.503   0.010  0.00  0.00     0.070 C 
ATOM      2  C2  ZIN A   1       0.002  -0.004   0.002  0.00  0.00     0.028 A 
ATOM      3  C3  ZIN A   1       0.008  -0.786  -1.096  0.00  0.00     0.102 A 
ATOM      4  C4  ZIN A   1       0.028  -2.136  -0.674  0.00  0.00     0.268 A 
ATOM      5  O5  ZIN A   1       0.039  -3.116  -1.397  0.00  0.00    -0.266 OA
ATOM      6  N6  ZIN A   1       0.034  -2.142   0.675  0.00  0.00    -0.221 N 
ATOM      7  N13 ZIN A   1       0.024  -0.809   1.106  0.00  0.00    -0.295 N 
ATOM      8  H23 ZIN A   1       0.025  -0.509   2.028  0.00  0.00     0.187 HD
ENDROOT
BRANCH   6   9
ATOM      9  C7  ZIN A   1       0.053  -3.274   1.495  0.00  0.00     0.060 A 
ATOM     10  C12 ZIN A   1       0.067  -4.543   0.930  0.00  0.00     0.031 A 
ATOM     11  C11 ZIN A   1       0.092  -5.659   1.743  0.00  0.00     0.002 A 
ATOM     12  C10 ZIN A   1       0.090  -5.515   3.118  0.00  0.00     0.000 A 
ATOM     13  C9  ZIN A   1       0.070  -4.253   3.684  0.00  0.00     0.002 A 
ATOM     14  C8  ZIN A   1       0.051  -3.133   2.877  0.00  0.00     0.031 A 
ENDBRANCH   6   9
TORSDOF 1
