REMARK  7 active torsions:
REMARK  status: ('A' for Active; 'I' for Inactive)
REMARK    1  A    between atoms: O1_1  and  C2_2 
REMARK    2  A    between atoms: C2_2  and  C3_3 
REMARK    3  A    between atoms: C3_3  and  O4_4 
REMARK    4  A    between atoms: O4_4  and  C5_5 
REMARK    5  A    between atoms: C5_5  and  C6_6 
REMARK    6  A    between atoms: C6_6  and  N7_7 
REMARK    7  A    between atoms: N10_10  and  C11_11 
ROOT
ATOM      1  C11 <0> d   1      -0.987  -0.732  -7.103  0.00  0.00     0.138 C 
ATOM      2  N12 <0> d   1      -1.508  -0.159  -8.108  0.00  0.00    -0.229 NA
ATOM      3  C13 <0> d   1      -0.959   0.271  -9.272  0.00  0.00     0.076 A 
ATOM      4  C14 <0> d   1      -1.617  -0.023 -10.472  0.00  0.00     0.033 A 
ATOM      5  C15 <0> d   1      -1.090   0.398 -11.677  0.00  0.00     0.002 A 
ATOM      6  C16 <0> d   1       0.091   1.115 -11.710  0.00  0.00     0.002 A 
ATOM      7  C17 <0> d   1       0.753   1.413 -10.530  0.00  0.00     0.021 A 
ATOM      8  C18 <0> d   1       0.235   0.995  -9.316  0.00  0.00     0.034 A 
ATOM      9  S19 <0> d   1       1.097   1.382  -7.828  0.00  0.00    -0.087 SA
ATOM     10  C20 <0> d   1       1.460  -0.211  -7.168  0.00  0.00     0.019 A 
ATOM     11  C21 <0> d   1       2.775  -0.588  -6.949  0.00  0.00     0.020 A 
ATOM     12  C22 <0> d   1       3.060  -1.836  -6.426  0.00  0.00     0.001 A 
ATOM     13  C23 <0> d   1       2.033  -2.711  -6.120  0.00  0.00     0.001 A 
ATOM     14  C24 <0> d   1       0.719  -2.349  -6.334  0.00  0.00     0.017 A 
ATOM     15  C25 <0> d   1       0.413  -1.088  -6.863  0.00  0.00     0.027 A 
ENDROOT
BRANCH   1  16
ATOM     16  N10 <0> d   1      -1.861  -1.061  -6.091  0.00  0.00    -0.362 N 
ATOM     17  C9  <0> d   1      -1.369  -1.593  -4.812  0.00  0.00     0.154 C 
ATOM     18  C8  <0> d   1      -1.986  -0.773  -3.674  0.00  0.00     0.292 C 
ATOM     19  N7  <0> d   1      -3.448  -0.760  -3.820  0.00  0.00     0.093 N 
ATOM     20  C27 <0> d   1      -3.852  -0.097  -5.067  0.00  0.00     0.292 C 
ATOM     21  C26 <0> d   1      -3.312  -0.889  -6.262  0.00  0.00     0.154 C 
BRANCH  19  22
ATOM     22  C6  <0> d   1      -4.088  -0.131  -2.657  0.00  0.00     0.298 C 
BRANCH  22  23
ATOM     23  C5  <0> d   1      -3.384   1.190  -2.341  0.00  0.00     0.198 C 
BRANCH  23  24
ATOM     24  O4  <0> d   1      -3.595   2.111  -3.413  0.00  0.00    -0.387 OA
BRANCH  24  25
ATOM     25  C3  <0> d   1      -2.976   3.384  -3.216  0.00  0.00     0.193 C 
BRANCH  25  26
ATOM     26  C2  <0> d   1      -3.266   4.283  -4.419  0.00  0.00     0.190 C 
BRANCH  26  27
ATOM     27  O1  <0> d   1      -4.668   4.551  -4.486  0.00  0.00    -0.399 OA
ATOM     28  H28 <0> d   1      -4.925   5.118  -5.227  0.00  0.00     0.209 HD
ENDBRANCH  26  27
ENDBRANCH  25  26
ENDBRANCH  24  25
ENDBRANCH  23  24
ENDBRANCH  22  23
ENDBRANCH  19  22
ENDBRANCH   1  16
TORSDOF 7
