REMARK  26 active torsions:
REMARK  status: ('A' for Active; 'I' for Inactive)
REMARK    1  A    between atoms: C2_2  and  C3_3 
REMARK    2  A    between atoms: C3_3  and  N4_4 
REMARK    3  A    between atoms: C13_13  and  O14_14 
REMARK    4  A    between atoms: C19_18  and  O21_19 
REMARK    5  A    between atoms: O21_19  and  C22_20 
REMARK    6  A    between atoms: C22_20  and  C23_21 
REMARK    7  A    between atoms: C23_21  and  O24_22 
REMARK    8  A    between atoms: O24_22  and  C25_23 
REMARK    9  A    between atoms: C25_23  and  C26_24 
REMARK   10  A    between atoms: C26_24  and  O27_25 
REMARK   11  A    between atoms: O27_25  and  C28_26 
REMARK   12  A    between atoms: C28_26  and  C29_27 
REMARK   13  A    between atoms: C29_27  and  O30_28 
REMARK   14  A    between atoms: O30_28  and  C31_29 
REMARK   15  A    between atoms: C31_29  and  C32_30 
REMARK   16  A    between atoms: C32_30  and  O33_31 
REMARK   17  A    between atoms: O33_31  and  C34_32 
REMARK   18  A    between atoms: C34_32  and  C35_33 
REMARK   19  A    between atoms: C35_33  and  O36_34 
REMARK   20  A    between atoms: O36_34  and  C37_35 
REMARK   21  A    between atoms: C37_35  and  C38_36 
REMARK   22  A    between atoms: C38_36  and  O39_37 
REMARK   23  A    between atoms: O39_37  and  C40_38 
REMARK   24  A    between atoms: C40_38  and  C41_39 
REMARK   25  A    between atoms: C41_39  and  O42_40 
REMARK   26  A    between atoms: C46_44  and  O47_45 
ROOT
ATOM      1  N4  ZIN A   1       1.368  -1.678   1.115  0.00  0.00    -0.060 N 
ATOM      2  H5  ZIN A   1       0.523  -2.230   1.123  0.00  0.00     0.280 HD
ATOM      3  C6  ZIN A   1       1.459  -0.920   2.365  0.00  0.00     0.237 C 
ATOM      4  C7  ZIN A   1       2.724  -0.052   2.372  0.00  0.00     0.048 C 
ATOM      5  C8  ZIN A   1       3.930  -0.977   2.196  0.00  0.00     0.054 C 
ATOM      6  C9  ZIN A   1       3.909  -2.020   3.288  0.00  0.00    -0.001 A 
ATOM      7  C10 ZIN A   1       3.268  -3.235   3.259  0.00  0.00    -0.046 A 
ATOM      8  C11 ZIN A   1       3.393  -4.012   4.397  0.00  0.00     0.011 A 
ATOM      9  C12 ZIN A   1       4.171  -3.576   5.457  0.00  0.00     0.040 A 
ATOM     10  C13 ZIN A   1       4.874  -2.373   5.444  0.00  0.00     0.099 A 
ATOM     11  C15 ZIN A   1       4.748  -1.576   4.301  0.00  0.00     0.110 A 
ATOM     12  O16 ZIN A   1       5.334  -0.412   3.944  0.00  0.00    -0.339 OA
ATOM     13  C17 ZIN A   1       5.245  -0.278   2.489  0.00  0.00     0.174 C 
ATOM     14  C19 ZIN A   1       6.471  -0.960   1.917  0.00  0.00     0.152 C 
ATOM     15  C44 ZIN A   1       6.266  -1.676   0.603  0.00  0.00     0.037 C 
ATOM     16  C45 ZIN A   1       5.053  -2.605   0.654  0.00  0.00     0.044 C 
ATOM     17  C46 ZIN A   1       3.796  -1.730   0.884  0.00  0.00     0.101 C 
ATOM     18  C48 ZIN A   1       2.523  -2.569   0.949  0.00  0.00     0.228 C 
ATOM     19  C50 ZIN A   1       2.528  -3.641   2.025  0.00  0.00     0.075 C 
ENDROOT
BRANCH  14  20
ATOM     20  O21 ZIN A   1       6.942  -1.912   2.873  0.00  0.00    -0.381 OA
BRANCH  20  21
ATOM     21  C22 ZIN A   1       8.354  -2.128   2.832  0.00  0.00     0.194 C 
BRANCH  21  22
ATOM     22  C23 ZIN A   1       8.743  -3.160   3.892  0.00  0.00     0.193 C 
BRANCH  22  23
ATOM     23  O24 ZIN A   1       8.158  -4.422   3.566  0.00  0.00    -0.387 OA
BRANCH  23  24
ATOM     24  C25 ZIN A   1       8.461  -5.462   4.498  0.00  0.00     0.193 C 
BRANCH  24  25
ATOM     25  C26 ZIN A   1       7.786  -6.760   4.052  0.00  0.00     0.193 C 
BRANCH  25  26
ATOM     26  O27 ZIN A   1       8.351  -7.188   2.811  0.00  0.00    -0.387 OA
BRANCH  26  27
ATOM     27  C28 ZIN A   1       7.787  -8.399   2.303  0.00  0.00     0.193 C 
BRANCH  27  28
ATOM     28  C29 ZIN A   1       8.463  -8.761   0.979  0.00  0.00     0.193 C 
BRANCH  28  29
ATOM     29  O30 ZIN A   1       9.842  -9.054   1.214  0.00  0.00    -0.387 OA
BRANCH  29  30
ATOM     30  C31 ZIN A   1      10.570  -9.406   0.035  0.00  0.00     0.193 C 
BRANCH  30  31
ATOM     31  C32 ZIN A   1      12.026  -9.698   0.403  0.00  0.00     0.193 C 
BRANCH  31  32
ATOM     32  O33 ZIN A   1      12.083 -10.854   1.241  0.00  0.00    -0.387 OA
BRANCH  32  33
ATOM     33  C34 ZIN A   1      13.405 -11.215   1.644  0.00  0.00     0.193 C 
BRANCH  33  34
ATOM     34  C35 ZIN A   1      13.346 -12.459   2.533  0.00  0.00     0.193 C 
BRANCH  34  35
ATOM     35  O36 ZIN A   1      12.867 -13.568   1.770  0.00  0.00    -0.387 OA
BRANCH  35  36
ATOM     36  C37 ZIN A   1      12.773 -14.786   2.510  0.00  0.00     0.193 C 
BRANCH  36  37
ATOM     37  C38 ZIN A   1      12.253 -15.899   1.598  0.00  0.00     0.193 C 
BRANCH  37  38
ATOM     38  O39 ZIN A   1      13.209 -16.156   0.567  0.00  0.00    -0.387 OA
BRANCH  38  39
ATOM     39  C40 ZIN A   1      12.819 -17.184  -0.345  0.00  0.00     0.193 C 
BRANCH  39  40
ATOM     40  C41 ZIN A   1      13.911 -17.373  -1.399  0.00  0.00     0.193 C 
BRANCH  40  41
ATOM     41  O42 ZIN A   1      15.101 -17.856  -0.772  0.00  0.00    -0.394 OA
ATOM     42  C43 ZIN A   1      16.189 -18.067  -1.673  0.00  0.00     0.201 C 
ENDBRANCH  40  41
ENDBRANCH  39  40
ENDBRANCH  38  39
ENDBRANCH  37  38
ENDBRANCH  36  37
ENDBRANCH  35  36
ENDBRANCH  34  35
ENDBRANCH  33  34
ENDBRANCH  32  33
ENDBRANCH  31  32
ENDBRANCH  30  31
ENDBRANCH  29  30
ENDBRANCH  28  29
ENDBRANCH  27  28
ENDBRANCH  26  27
ENDBRANCH  25  26
ENDBRANCH  24  25
ENDBRANCH  23  24
ENDBRANCH  22  23
ENDBRANCH  21  22
ENDBRANCH  20  21
ENDBRANCH  14  20
BRANCH  17  43
ATOM     43  O47 ZIN A   1       3.670  -0.794  -0.189  0.00  0.00    -0.386 OA
ATOM     44  H98 ZIN A   1       3.579  -1.204  -1.060  0.00  0.00     0.210 HD
ENDBRANCH  17  43
BRANCH  10  45
ATOM     45  O14 ZIN A   1       5.648  -1.991   6.495  0.00  0.00    -0.358 OA
ATOM     46  H62 ZIN A   1       6.566  -2.290   6.437  0.00  0.00     0.217 HD
ENDBRANCH  10  45
BRANCH   1  47
ATOM     47  C3  ZIN A   1       1.317  -0.740  -0.015  0.00  0.00     0.262 C 
BRANCH  47  48
ATOM     48  C2  ZIN A   1       0.002  -0.005   0.002  0.00  0.00    -0.010 C 
ATOM     49  C1  ZIN A   1      -0.017   1.305   0.009  0.00  0.00     0.008 C 
ENDBRANCH  47  48
ENDBRANCH   1  47
TORSDOF 26
