REMARK  2 active torsions:
REMARK  status: ('A' for Active; 'I' for Inactive)
REMARK    1  A    between atoms: C8_8  and  N9_9 
REMARK       I    between atoms: N9_9  and  C10_10 
REMARK    2  A    between atoms: C10_10  and  C12_12 
ROOT
ATOM      1  N9  <0> d   1       0.177  -0.003   2.411  0.00  0.00    -0.324 N 
ATOM      2  C10 <0> d   1       0.421   1.322   2.406  0.00  0.00     0.253 C 
ATOM      3  O11 <0> d   1       0.461   1.928   1.356  0.00  0.00    -0.271 OA
ATOM      4  H30 <0> d   1       0.097  -0.479   3.252  0.00  0.00     0.169 HD
ENDROOT
BRANCH   1   5
ATOM      5  C8  <0> d   1       0.039  -0.693   1.201  0.00  0.00     0.046 A 
ATOM      6  C2  <0> d   1      -1.032  -0.418   0.361  0.00  0.00    -0.035 A 
ATOM      7  C1  <0> d   1      -2.044   0.629   0.748  0.00  0.00     0.050 C 
ATOM      8  C3  <0> d   1      -1.164  -1.100  -0.832  0.00  0.00     0.009 A 
ATOM      9  C4  <0> d   1      -0.235  -2.061  -1.188  0.00  0.00     0.001 A 
ATOM     10  C5  <0> d   1       0.829  -2.342  -0.351  0.00  0.00     0.009 A 
ATOM     11  C6  <0> d   1       0.967  -1.663   0.844  0.00  0.00    -0.035 A 
ATOM     12  C7  <0> d   1       2.128  -1.969   1.756  0.00  0.00     0.050 C 
ENDBRANCH   1   5
BRANCH   2  13
ATOM     13  C12 <0> d   1       0.644   2.052   3.706  0.00  0.00     0.279 C 
ATOM     14  N18 <0> d   1       0.943   3.462   3.430  0.00  0.00    -0.062 N 
ATOM     15  C17 <0> d   1       2.107   3.561   2.542  0.00  0.00     0.235 C 
ATOM     16  H19 <0> d   1       1.141   3.939   4.296  0.00  0.00     0.280 HD
ATOM     17  C20 <0> d   1      -0.219   4.087   2.783  0.00  0.00     0.270 C 
ATOM     18  C16 <0> d   1       3.338   2.983   3.243  0.00  0.00     0.028 C 
ATOM     19  C15 <0> d   1       3.079   1.513   3.587  0.00  0.00     0.004 C 
ATOM     20  C14 <0> d   1       1.819   1.415   4.452  0.00  0.00     0.043 C 
ENDBRANCH   2  13
TORSDOF 2
