REMARK  6 active torsions:
REMARK  status: ('A' for Active; 'I' for Inactive)
REMARK    1  A    between atoms: C5_5  and  C6_6 
REMARK    2  A    between atoms: C6_6  and  C8_7 
REMARK    3  A    between atoms: C6_6  and  O14_13 
REMARK    4  A    between atoms: C8_7  and  N9_8 
REMARK    5  A    between atoms: O14_13  and  C15_14 
REMARK    6  A    between atoms: C15_14  and  C16_15 
ROOT
ATOM      1  C6  ZIN A   1      -0.082   6.004   0.035  0.00  0.00     0.174 C 
ENDROOT
BRANCH   1   2
ATOM      2  C5  ZIN A   1      -0.061   4.497   0.026  0.00  0.00    -0.006 A 
ATOM      3  C4  ZIN A   1      -1.248   3.789   0.040  0.00  0.00     0.013 A 
ATOM      4  C3  ZIN A   1      -1.229   2.407   0.033  0.00  0.00     0.024 A 
ATOM      5  C2  ZIN A   1      -0.021   1.732   0.012  0.00  0.00     0.035 A 
ATOM      6 Cl1  ZIN A   1       0.002  -0.004   0.002  0.00  0.00    -0.084 Cl
ATOM      7  C28 ZIN A   1       1.167   2.440   0.004  0.00  0.00     0.048 A 
ATOM      8  C26 ZIN A   1       1.147   3.823   0.006  0.00  0.00     0.044 A 
ATOM      9 Cl27 ZIN A   1       2.638   4.712  -0.011  0.00  0.00    -0.084 Cl
ENDBRANCH   1   2
BRANCH   1  10
ATOM     10  C8  ZIN A   1       0.016   6.524  -1.401  0.00  0.00     0.166 C 
BRANCH  10  11
ATOM     11  N9  ZIN A   1       0.115   7.985  -1.386  0.00  0.00    -0.347 N 
ATOM     12  C13 ZIN A   1       1.253   8.710  -1.331  0.00  0.00     0.209 A 
ATOM     13  N12 ZIN A   1       0.942   9.978  -1.338  0.00  0.00    -0.255 NA
ATOM     14  C11 ZIN A   1      -0.392  10.105  -1.389  0.00  0.00     0.135 A 
ATOM     15  C10 ZIN A   1      -0.928   8.870  -1.420  0.00  0.00     0.111 A 
ENDBRANCH  10  11
ENDBRANCH   1  10
BRANCH   1  16
ATOM     16  O14 ZIN A   1      -1.302   6.460   0.624  0.00  0.00    -0.375 OA
BRANCH  16  17
ATOM     17  C15 ZIN A   1      -1.189   7.718   1.293  0.00  0.00     0.208 C 
BRANCH  17  18
ATOM     18  C16 ZIN A   1      -2.527   8.099   1.873  0.00  0.00    -0.016 A 
ATOM     19  C25 ZIN A   1      -2.734   9.332   2.616  0.00  0.00    -0.009 A 
ATOM     20  C19 ZIN A   1      -4.057   9.462   3.047  0.00  0.00     0.037 A 
ATOM     21  C24 ZIN A   1      -1.815  10.359   2.920  0.00  0.00     0.013 A 
ATOM     22  S18 ZIN A   1      -4.988   8.060   2.534  0.00  0.00    -0.099 SA
ATOM     23  C20 ZIN A   1      -4.441  10.592   3.777  0.00  0.00     0.052 A 
ATOM     24  C17 ZIN A   1      -3.596   7.338   1.751  0.00  0.00     0.060 A 
ATOM     25 Cl21 ZIN A   1      -6.082  10.755   4.321  0.00  0.00    -0.083 Cl
ATOM     26  C22 ZIN A   1      -3.522  11.575   4.064  0.00  0.00     0.025 A 
ATOM     27  C23 ZIN A   1      -2.209  11.450   3.631  0.00  0.00     0.003 A 
ENDBRANCH  17  18
ENDBRANCH  16  17
ENDBRANCH   1  16
TORSDOF 6
