REMARK  10 active torsions:
REMARK  status: ('A' for Active; 'I' for Inactive)
REMARK    1  A    between atoms: O2_2  and  C3_3 
REMARK    2  A    between atoms: C3_3  and  C5_5 
REMARK    3  A    between atoms: C7_6  and  O9_7 
REMARK    4  A    between atoms: C11_9  and  O13_10 
REMARK    5  A    between atoms: O13_10  and  C14_11 
REMARK    6  A    between atoms: C14_11  and  C16_13 
REMARK    7  A    between atoms: C18_15  and  O19_16 
REMARK    8  A    between atoms: C21_18  and  O22_19 
REMARK    9  A    between atoms: C24_21  and  O25_22 
REMARK   10  A    between atoms: C40_36  and  O41_37 
ROOT
ATOM      1  C5  ZIN A   1      -1.177  -2.578  -0.280  0.00  0.00     0.121 C 
ATOM      2  C7  ZIN A   1      -0.760  -2.956  -1.702  0.00  0.00     0.164 C 
ATOM      3  C11 ZIN A   1      -1.523  -2.085  -2.703  0.00  0.00     0.162 C 
ATOM      4  C28 ZIN A   1      -3.026  -2.321  -2.537  0.00  0.00     0.042 C 
ATOM      5  C29 ZIN A   1      -3.450  -1.955  -1.115  0.00  0.00     0.021 C 
ATOM      6  C31 ZIN A   1      -3.169  -0.474  -0.856  0.00  0.00     0.278 C 
ATOM      7  N32 ZIN A   1      -3.578  -0.138   0.513  0.00  0.00     0.099 N 
ATOM      8  C33 ZIN A   1      -3.502   1.305   0.766  0.00  0.00     0.278 C 
ATOM      9  C34 ZIN A   1      -4.295   1.644   2.036  0.00  0.00     0.072 C 
ATOM     10  C35 ZIN A   1      -3.881   0.681   3.120  0.00  0.00    -0.019 A 
ATOM     11  C36 ZIN A   1      -3.210  -0.469   2.882  0.00  0.00     0.050 A 
ATOM     12  N37 ZIN A   1      -2.981  -1.124   4.063  0.00  0.00    -0.357 N 
ATOM     13  C38 ZIN A   1      -3.499  -0.402   5.100  0.00  0.00     0.046 A 
ATOM     14  C39 ZIN A   1      -3.524  -0.629   6.474  0.00  0.00     0.067 A 
ATOM     15  C40 ZIN A   1      -4.147   0.332   7.259  0.00  0.00     0.070 A 
ATOM     16  C43 ZIN A   1      -4.724   1.472   6.713  0.00  0.00     0.038 A 
ATOM     17  C44 ZIN A   1      -4.713   1.718   5.362  0.00  0.00     0.017 A 
ATOM     18  C45 ZIN A   1      -4.090   0.766   4.549  0.00  0.00    -0.001 A 
ATOM     19  C46 ZIN A   1      -2.801  -0.906   1.498  0.00  0.00     0.273 C 
ATOM     20  C48 ZIN A   1      -3.081  -2.399   1.316  0.00  0.00     0.048 C 
ATOM     21  C49 ZIN A   1      -2.680  -2.809  -0.107  0.00  0.00     0.010 C 
ATOM     22  H76 ZIN A   1      -2.520  -1.973   4.150  0.00  0.00     0.166 HD
ENDROOT
BRANCH   3  23
ATOM     23  O13 ZIN A   1      -1.222  -0.686  -2.456  0.00  0.00    -0.309 OA
BRANCH  23  24
ATOM     24  C14 ZIN A   1      -0.117  -0.186  -3.044  0.00  0.00     0.294 C 
ATOM     25  O15 ZIN A   1       0.627  -0.920  -3.663  0.00  0.00    -0.259 OA
BRANCH  24  26
ATOM     26  C16 ZIN A   1       0.188   1.253  -2.936  0.00  0.00     0.045 A 
ATOM     27  C27 ZIN A   1       1.355   1.766  -3.509  0.00  0.00     0.057 A 
ATOM     28  C24 ZIN A   1       1.636   3.116  -3.410  0.00  0.00     0.105 A 
ATOM     29  C21 ZIN A   1       0.763   3.962  -2.731  0.00  0.00     0.135 A 
ATOM     30  C18 ZIN A   1      -0.398   3.453  -2.155  0.00  0.00     0.105 A 
ATOM     31  C17 ZIN A   1      -0.686   2.105  -2.255  0.00  0.00     0.057 A 
BRANCH  28  32
ATOM     32  O25 ZIN A   1       2.769   3.617  -3.971  0.00  0.00    -0.353 OA
ATOM     33  C26 ZIN A   1       3.619   2.692  -4.652  0.00  0.00     0.210 C 
ENDBRANCH  28  32
BRANCH  29  34
ATOM     34  O22 ZIN A   1       1.044   5.288  -2.631  0.00  0.00    -0.351 OA
ATOM     35  C23 ZIN A   1       1.812   5.705  -1.500  0.00  0.00     0.210 C 
ENDBRANCH  29  34
BRANCH  30  36
ATOM     36  O19 ZIN A   1      -1.248   4.282  -1.492  0.00  0.00    -0.353 OA
ATOM     37  C20 ZIN A   1      -2.359   3.677  -0.828  0.00  0.00     0.210 C 
ENDBRANCH  30  36
ENDBRANCH  24  26
ENDBRANCH  23  24
ENDBRANCH   3  23
BRANCH   2  38
ATOM     38  O9  ZIN A   1      -1.064  -4.332  -1.938  0.00  0.00    -0.387 OA
ATOM     39  C10 ZIN A   1      -0.184  -4.971  -2.865  0.00  0.00     0.202 C 
ENDBRANCH   2  38
BRANCH   1  40
ATOM     40  C3  ZIN A   1      -0.861  -1.125  -0.034  0.00  0.00     0.265 C 
ATOM     41  O4  ZIN A   1      -0.900  -0.335  -0.947  0.00  0.00    -0.265 OA
BRANCH  40  42
ATOM     42  O2  ZIN A   1      -0.536  -0.708   1.200  0.00  0.00    -0.326 OA
ATOM     43  C1  ZIN A   1      -0.110   0.673   1.339  0.00  0.00     0.213 C 
ENDBRANCH  40  42
ENDBRANCH   1  40
BRANCH  15  44
ATOM     44  O41 ZIN A   1      -4.195   0.151   8.606  0.00  0.00    -0.356 OA
ATOM     45  C42 ZIN A   1      -4.846   1.166   9.374  0.00  0.00     0.210 C 
ENDBRANCH  15  44
TORSDOF 10
