REMARK  13 active torsions:
REMARK  status: ('A' for Active; 'I' for Inactive)
REMARK    1  A    between atoms: O2_2  and  C3_3 
REMARK    2  A    between atoms: C6_6  and  C7_7 
REMARK    3  A    between atoms: C7_7  and  C8_8 
REMARK    4  A    between atoms: C8_8  and  N9_9 
REMARK    5  A    between atoms: N9_9  and  C12_12 
REMARK    6  A    between atoms: C12_12  and  C13_13 
REMARK    7  A    between atoms: C13_13  and  C14_14 
REMARK    8  A    between atoms: C14_14  and  C15_15 
REMARK    9  A    between atoms: C15_15  and  C18_18 
REMARK   10  A    between atoms: C15_15  and  C28_28 
REMARK   11  A    between atoms: C21_21  and  O22_22 
REMARK   12  A    between atoms: C24_24  and  O25_25 
REMARK   13  A    between atoms: C32_32  and  O33_33 
ROOT
ATOM      1  C15 ZIN A   1       8.983  -4.812  -7.181  0.00  0.00     0.079 C 
ATOM      2  C16 ZIN A   1       8.745  -3.807  -8.229  0.00  0.00     0.074 C 
ATOM      3  N17 ZIN A   1       8.561  -3.032  -9.039  0.00  0.00    -0.196 NA
ENDROOT
BRANCH   1   4
ATOM      4  C14 ZIN A   1       8.665  -4.206  -5.812  0.00  0.00     0.032 C 
BRANCH   4   5
ATOM      5  C13 ZIN A   1       7.171  -3.883  -5.732  0.00  0.00     0.030 C 
BRANCH   5   6
ATOM      6  C12 ZIN A   1       6.830  -3.393  -4.323  0.00  0.00     0.234 C 
BRANCH   6   7
ATOM      7  N9  ZIN A   1       5.396  -3.083  -4.247  0.00  0.00    -0.075 N 
ATOM      8  H10 ZIN A   1       5.156  -2.423  -4.971  0.00  0.00     0.279 HD
ATOM      9  C11 ZIN A   1       4.618  -4.315  -4.429  0.00  0.00     0.269 C 
BRANCH   7  10
ATOM     10  C8  ZIN A   1       5.091  -2.500  -2.933  0.00  0.00     0.239 C 
BRANCH  10  11
ATOM     11  C7  ZIN A   1       3.626  -2.063  -2.898  0.00  0.00     0.066 C 
BRANCH  11  12
ATOM     12  C6  ZIN A   1       3.312  -1.465  -1.550  0.00  0.00    -0.054 A 
ATOM     13  C5  ZIN A   1       3.482  -0.110  -1.340  0.00  0.00     0.010 A 
ATOM     14  C4  ZIN A   1       3.196   0.443  -0.105  0.00  0.00     0.040 A 
ATOM     15  C3  ZIN A   1       2.738  -0.362   0.924  0.00  0.00     0.101 A 
ATOM     16  C32 ZIN A   1       2.572  -1.728   0.715  0.00  0.00     0.102 A 
ATOM     17  C31 ZIN A   1       2.856  -2.275  -0.526  0.00  0.00     0.046 A 
BRANCH  15  18
ATOM     18  O2  ZIN A   1       2.456   0.180   2.139  0.00  0.00    -0.353 OA
ATOM     19  C1  ZIN A   1       2.650   1.589   2.282  0.00  0.00     0.210 C 
ENDBRANCH  15  18
BRANCH  16  20
ATOM     20  O33 ZIN A   1       2.123  -2.522   1.723  0.00  0.00    -0.353 OA
ATOM     21  C34 ZIN A   1       1.967  -3.913   1.433  0.00  0.00     0.210 C 
ENDBRANCH  16  20
ENDBRANCH  11  12
ENDBRANCH  10  11
ENDBRANCH   7  10
ENDBRANCH   6   7
ENDBRANCH   5   6
ENDBRANCH   4   5
ENDBRANCH   1   4
BRANCH   1  22
ATOM     22  C18 ZIN A   1      10.427  -5.243  -7.216  0.00  0.00    -0.032 A 
ATOM     23  C27 ZIN A   1      11.426  -4.332  -6.925  0.00  0.00     0.048 A 
ATOM     24  C24 ZIN A   1      12.753  -4.728  -6.951  0.00  0.00     0.102 A 
ATOM     25  C21 ZIN A   1      13.078  -6.040  -7.282  0.00  0.00     0.101 A 
ATOM     26  C20 ZIN A   1      12.073  -6.946  -7.578  0.00  0.00     0.040 A 
ATOM     27  C19 ZIN A   1      10.750  -6.546  -7.544  0.00  0.00     0.012 A 
BRANCH  24  28
ATOM     28  O25 ZIN A   1      13.736  -3.835  -6.660  0.00  0.00    -0.353 OA
ATOM     29  C26 ZIN A   1      13.329  -2.506  -6.330  0.00  0.00     0.210 C 
ENDBRANCH  24  28
BRANCH  25  30
ATOM     30  O22 ZIN A   1      14.380  -6.432  -7.314  0.00  0.00    -0.353 OA
ATOM     31  C23 ZIN A   1      14.639  -7.794  -7.662  0.00  0.00     0.210 C 
ENDBRANCH  25  30
ENDBRANCH   1  22
BRANCH   1  32
ATOM     32  C28 ZIN A   1       8.083  -6.025  -7.423  0.00  0.00     0.004 C 
ATOM     33  C29 ZIN A   1       8.308  -6.552  -8.841  0.00  0.00     0.011 C 
ATOM     34  C30 ZIN A   1       8.422  -7.122  -6.412  0.00  0.00     0.011 C 
ENDBRANCH   1  32
TORSDOF 13
