REMARK  4 active torsions:
REMARK  status: ('A' for Active; 'I' for Inactive)
REMARK    1  A    between atoms: C2_2  and  N3_3 
REMARK    2  A    between atoms: N3_3  and  C4_4 
REMARK    3  A    between atoms: C16_14  and  S17_15 
REMARK    4  A    between atoms: S17_15  and  N18_16 
ROOT
ATOM      1  C4  ZIN A   1      -1.283  -1.978  -0.036  0.00  0.00     0.256 C 
ATOM      2  C6  ZIN A   1      -2.567  -2.573   0.520  0.00  0.00     0.060 C 
ATOM      3  C7  ZIN A   1      -2.481  -4.106   0.532  0.00  0.00     0.112 C 
ATOM      4  C9  ZIN A   1      -1.146  -4.548   1.134  0.00  0.00     0.026 C 
ATOM      5  S10 ZIN A   1      -2.600  -4.665  -1.198  0.00  0.00     0.186 S 
ATOM      6  O11 ZIN A   1      -1.973  -5.930  -1.365  0.00  0.00    -0.222 OA
ATOM      7  O12 ZIN A   1      -3.893  -4.406  -1.727  0.00  0.00    -0.222 OA
ATOM      8  C13 ZIN A   1      -1.534  -3.522  -2.034  0.00  0.00     0.110 A 
ATOM      9  C14 ZIN A   1      -1.031  -2.408  -1.470  0.00  0.00     0.005 A 
ATOM     10  C15 ZIN A   1      -0.229  -1.669  -2.343  0.00  0.00     0.044 A 
ATOM     11  C16 ZIN A   1      -0.079  -2.171  -3.563  0.00  0.00     0.121 A 
ATOM     12  S21 ZIN A   1      -0.986  -3.671  -3.696  0.00  0.00    -0.064 SA
ENDROOT
BRANCH  11  13
ATOM     13  S17 ZIN A   1       0.879  -1.445  -4.850  0.00  0.00     0.263 S 
ATOM     14  O19 ZIN A   1       0.353  -1.943  -6.072  0.00  0.00    -0.200 OA
ATOM     15  O20 ZIN A   1       0.968  -0.058  -4.551  0.00  0.00    -0.200 OA
BRANCH  13  16
ATOM     16  N18 ZIN A   1       2.414  -2.051  -4.721  0.00  0.00    -0.324 N 
ATOM     17  H34 ZIN A   1       2.966  -2.149  -5.513  0.00  0.00     0.169 HD
ATOM     18  H35 ZIN A   1       2.762  -2.308  -3.852  0.00  0.00     0.169 HD
ENDBRANCH  13  16
ENDBRANCH  11  13
BRANCH   1  19
ATOM     19  N3  ZIN A   1      -1.376  -0.512   0.012  0.00  0.00     0.092 N 
ATOM     20  H27 ZIN A   1      -2.301  -0.200  -0.241  0.00  0.00     0.316 HD
BRANCH  19  21
ATOM     21  C2  ZIN A   1      -0.993  -0.005   1.337  0.00  0.00     0.266 C 
ATOM     22  C1  ZIN A   1      -0.977   1.525   1.311  0.00  0.00     0.037 C 
ENDBRANCH  19  21
ENDBRANCH   1  19
TORSDOF 4
