REMARK  11 active torsions:
REMARK  status: ('A' for Active; 'I' for Inactive)
REMARK    1  A    between atoms: N1_1  and  C2_2 
REMARK    2  A    between atoms: N9_9  and  C10_10 
REMARK    3  A    between atoms: C12_12  and  C14_13 
REMARK    4  A    between atoms: C14_13  and  N15_14 
REMARK    5  A    between atoms: N15_14  and  C16_15 
REMARK    6  A    between atoms: C19_18  and  C20_19 
REMARK       I    between atoms: C20_19  and  N22_21 
REMARK    7  A    between atoms: N22_21  and  C23_22 
REMARK    8  A    between atoms: C23_22  and  C25_23 
REMARK    9  A    between atoms: C23_22  and  C30_28 
REMARK   10  A    between atoms: C25_23  and  C26_24 
REMARK   11  A    between atoms: C26_24  and  C27_25 
ROOT
ATOM      1  N15 ZIN A   1      -0.296  -5.289  -2.559  0.00  0.00    -0.388 N 
ATOM      2  H43 ZIN A   1       0.462  -5.616  -2.050  0.00  0.00     0.159 HD
ENDROOT
BRANCH   1   3
ATOM      3  C14 ZIN A   1      -1.466  -4.744  -1.865  0.00  0.00     0.147 C 
BRANCH   3   4
ATOM      4  C12 ZIN A   1      -1.236  -4.806  -0.353  0.00  0.00     0.128 C 
ATOM      5  N9  ZIN A   1       0.019  -4.117  -0.012  0.00  0.00    -0.309 N 
ATOM      6  C5  ZIN A   1       0.035  -2.707  -0.021  0.00  0.00     0.153 A 
ATOM      7  C4  ZIN A   1      -1.159  -1.996  -0.013  0.00  0.00     0.175 A 
ATOM      8  C6  ZIN A   1       1.245  -2.004  -0.034  0.00  0.00     0.290 A 
ATOM      9  N3  ZIN A   1      -1.131  -0.659  -0.016  0.00  0.00    -0.045 NA
ATOM     10  N36 ZIN A   1      -2.365  -2.675  -0.005  0.00  0.00    -0.370 N 
ATOM     11  C2  ZIN A   1       0.011  -0.004  -0.028  0.00  0.00     0.703 A 
ATOM     12  N8  ZIN A   1       1.206  -0.654  -0.044  0.00  0.00    -0.152 N 
ATOM     13  H39 ZIN A   1       2.033  -0.146  -0.055  0.00  0.00     0.187 HD
ATOM     14  C35 ZIN A   1      -2.384  -4.094   0.377  0.00  0.00     0.148 C 
ATOM     15  H55 ZIN A   1      -3.187  -2.220  -0.248  0.00  0.00     0.161 HD
ATOM     16  O7  ZIN A   1       2.312  -2.598  -0.043  0.00  0.00    -0.265 OA
BRANCH   5  17
ATOM     17  C10 ZIN A   1       1.127  -4.816   0.301  0.00  0.00     0.356 C 
ATOM     18  O11 ZIN A   1       1.077  -6.026   0.384  0.00  0.00    -0.283 OA
ENDBRANCH   5  17
BRANCH  11  19
ATOM     19  N1  ZIN A   1      -0.005   1.367  -0.031  0.00  0.00    -0.233 N 
ATOM     20  H37 ZIN A   1       0.829   1.862  -0.044  0.00  0.00     0.174 HD
ATOM     21  H38 ZIN A   1      -0.851   1.842  -0.024  0.00  0.00     0.174 HD
ENDBRANCH  11  19
ENDBRANCH   3   4
ENDBRANCH   1   3
BRANCH   1  22
ATOM     22  C16 ZIN A   1      -0.273  -5.337  -3.948  0.00  0.00     0.028 A 
ATOM     23  C34 ZIN A   1       0.839  -5.855  -4.607  0.00  0.00     0.030 A 
ATOM     24  C33 ZIN A   1       0.863  -5.910  -5.982  0.00  0.00     0.019 A 
ATOM     25  C19 ZIN A   1      -0.227  -5.434  -6.718  0.00  0.00     0.032 A 
ATOM     26  C18 ZIN A   1      -1.339  -4.909  -6.053  0.00  0.00     0.019 A 
ATOM     27  C17 ZIN A   1      -1.359  -4.863  -4.678  0.00  0.00     0.030 A 
BRANCH  25  28
ATOM     28  C20 ZIN A   1      -0.202  -5.485  -8.192  0.00  0.00     0.252 C 
ATOM     29  O21 ZIN A   1      -1.149  -5.070  -8.830  0.00  0.00    -0.268 OA
ATOM     30  N22 ZIN A   1       0.872  -5.991  -8.830  0.00  0.00    -0.342 N 
ATOM     31  H46 ZIN A   1       1.628  -6.322  -8.321  0.00  0.00     0.163 HD
BRANCH  30  32
ATOM     32  C23 ZIN A   1       0.897  -6.042 -10.294  0.00  0.00     0.186 C 
BRANCH  32  33
ATOM     33  C25 ZIN A   1       2.348  -6.045 -10.780  0.00  0.00     0.046 C 
BRANCH  33  34
ATOM     34  C26 ZIN A   1       3.013  -4.718 -10.409  0.00  0.00     0.116 C 
BRANCH  34  35
ATOM     35  C27 ZIN A   1       4.442  -4.722 -10.888  0.00  0.00     0.172 C 
ATOM     36  O28 ZIN A   1       4.887  -5.696 -11.471  0.00  0.00    -0.648 OA
ATOM     37  O29 ZIN A   1       5.153  -3.751 -10.692  0.00  0.00    -0.648 OA
ENDBRANCH  34  35
ENDBRANCH  33  34
ENDBRANCH  32  33
BRANCH  32  38
ATOM     38  C30 ZIN A   1       0.206  -7.295 -10.765  0.00  0.00     0.196 C 
ATOM     39  O31 ZIN A   1      -0.368  -7.308 -11.841  0.00  0.00    -0.646 OA
ATOM     40  O32 ZIN A   1       0.221  -8.298 -10.071  0.00  0.00    -0.646 OA
ENDBRANCH  32  38
ENDBRANCH  30  32
ENDBRANCH  25  28
ENDBRANCH   1  22
TORSDOF 11
