REMARK  12 active torsions:
REMARK  status: ('A' for Active; 'I' for Inactive)
REMARK    1  A    between atoms: C2_2  and  C3_3 
REMARK    2  A    between atoms: C3_3  and  C4_4 
REMARK    3  A    between atoms: C4_4  and  C5_5 
REMARK    4  A    between atoms: C5_5  and  C6_6 
REMARK    5  A    between atoms: C6_6  and  C7_7 
REMARK    6  A    between atoms: C7_7  and  C8_8 
REMARK       I    between atoms: C8_8  and  N10_10 
REMARK    7  A    between atoms: N10_10  and  C11_11 
REMARK    8  A    between atoms: C11_11  and  C13_12 
REMARK    9  A    between atoms: C11_11  and  C20_19 
REMARK   10  A    between atoms: C13_12  and  N14_13 
REMARK   11  A    between atoms: C20_19  and  O22_20 
REMARK   12  A    between atoms: C20_19  and  C23_21 
ROOT
ATOM      1  C11 ZIN A   1      -5.472  -8.160  -0.164  0.00  0.00     0.143 C 
ENDROOT
BRANCH   1   2
ATOM      2  N10 ZIN A   1      -5.510  -6.696  -0.201  0.00  0.00    -0.352 N 
ATOM      3  C8  ZIN A   1      -4.617  -5.981   0.511  0.00  0.00     0.218 C 
ATOM      4  O9  ZIN A   1      -3.828  -6.546   1.238  0.00  0.00    -0.274 OA
ATOM      5  H48 ZIN A   1      -6.178  -6.242  -0.737  0.00  0.00     0.163 HD
BRANCH   3   6
ATOM      6  C7  ZIN A   1      -4.598  -4.478   0.403  0.00  0.00     0.103 C 
BRANCH   6   7
ATOM      7  C6  ZIN A   1      -3.497  -3.916   1.305  0.00  0.00     0.009 C 
BRANCH   7   8
ATOM      8  C5  ZIN A   1      -3.478  -2.389   1.195  0.00  0.00     0.000 C 
BRANCH   8   9
ATOM      9  C4  ZIN A   1      -2.378  -1.827   2.097  0.00  0.00     0.000 C 
BRANCH   9  10
ATOM     10  C3  ZIN A   1      -2.359  -0.301   1.988  0.00  0.00    -0.000 C 
BRANCH  10  11
ATOM     11  C2  ZIN A   1      -1.258   0.261   2.890  0.00  0.00    -0.005 C 
ATOM     12  C1  ZIN A   1      -1.239   1.787   2.780  0.00  0.00     0.005 C 
ENDBRANCH  10  11
ENDBRANCH   9  10
ENDBRANCH   8   9
ENDBRANCH   7   8
ENDBRANCH   6   7
ENDBRANCH   3   6
ENDBRANCH   1   2
BRANCH   1  13
ATOM     13  C13 ZIN A   1      -5.205  -8.700  -1.570  0.00  0.00     0.262 C 
BRANCH  13  14
ATOM     14  N14 ZIN A   1      -3.936  -8.153  -2.071  0.00  0.00    -0.069 N 
ATOM     15  H15 ZIN A   1      -3.931  -7.148  -1.982  0.00  0.00     0.280 HD
ATOM     16  C19 ZIN A   1      -3.736  -8.542  -3.484  0.00  0.00     0.235 C 
ATOM     17  C18 ZIN A   1      -2.227  -8.783  -3.676  0.00  0.00     0.029 C 
ATOM     18  C17 ZIN A   1      -1.598  -8.536  -2.285  0.00  0.00     0.029 C 
ATOM     19  C16 ZIN A   1      -2.795  -8.740  -1.323  0.00  0.00     0.235 C 
ENDBRANCH  13  14
ENDBRANCH   1  13
BRANCH   1  20
ATOM     20  C20 ZIN A   1      -6.815  -8.693   0.340  0.00  0.00     0.175 C 
BRANCH  20  21
ATOM     21  O22 ZIN A   1      -7.840  -8.365  -0.600  0.00  0.00    -0.389 OA
ATOM     22  H59 ZIN A   1      -7.948  -7.416  -0.750  0.00  0.00     0.210 HD
ENDBRANCH  20  21
BRANCH  20  23
ATOM     23  C23 ZIN A   1      -7.136  -8.066   1.672  0.00  0.00    -0.025 A 
ATOM     24  C32 ZIN A   1      -6.810  -8.726   2.842  0.00  0.00     0.049 A 
ATOM     25  C31 ZIN A   1      -7.099  -8.149   4.069  0.00  0.00     0.102 A 
ATOM     26  C26 ZIN A   1      -7.725  -6.909   4.120  0.00  0.00     0.102 A 
ATOM     27  O30 ZIN A   1      -6.770  -8.810   5.213  0.00  0.00    -0.346 OA
ATOM     28  C25 ZIN A   1      -8.056  -6.255   2.942  0.00  0.00     0.040 A 
ATOM     29  O27 ZIN A   1      -8.014  -6.322   5.314  0.00  0.00    -0.346 OA
ATOM     30  C24 ZIN A   1      -7.762  -6.835   1.722  0.00  0.00     0.013 A 
ATOM     31  C28 ZIN A   1      -8.004  -7.171   6.466  0.00  0.00     0.202 C 
ATOM     32  C29 ZIN A   1      -6.737  -8.036   6.416  0.00  0.00     0.202 C 
ENDBRANCH  20  23
ENDBRANCH   1  20
TORSDOF 12
