REMARK  2 active torsions:
REMARK  status: ('A' for Active; 'I' for Inactive)
REMARK    1  A    between atoms: C2_2  and  C3_3 
REMARK    2  A    between atoms: C3_3  and  C4_4 
ROOT
ATOM      1  C4  <0> d   1       0.762  -2.018   1.233  0.00  0.00     0.017 A 
ATOM      2  C5  <0> d   1       1.827  -2.679   0.731  0.00  0.00     0.099 A 
ATOM      3  C6  <0> d   1       1.823  -4.095   0.734  0.00  0.00     0.249 A 
ATOM      4  O7  <0> d   1       2.772  -4.713   0.287  0.00  0.00    -0.268 OA
ATOM      5  N8  <0> d   1       0.759  -4.752   1.237  0.00  0.00    -0.300 N 
ATOM      6  C9  <0> d   1      -0.290  -4.067   1.731  0.00  0.00     0.178 A 
ATOM      7  S10 <0> d   1      -1.632  -4.921   2.365  0.00  0.00    -0.040 SA
ATOM      8  N11 <0> d   1      -0.295  -2.722   1.739  0.00  0.00    -0.337 N 
ATOM      9  H20 <0> d   1       0.748  -5.722   1.243  0.00  0.00     0.171 HD
ATOM     10  H21 <0> d   1      -1.060  -2.247   2.100  0.00  0.00     0.168 HD
ENDROOT
BRANCH   1  11
ATOM     11  C3  <0> d   1       0.742  -0.511   1.242  0.00  0.00     0.057 C 
BRANCH  11  12
ATOM     12  C2  <0> d   1       0.002  -0.004   0.002  0.00  0.00     0.002 C 
ATOM     13  C1  <0> d   1      -0.019   1.526   0.010  0.00  0.00     0.005 C 
ENDBRANCH  11  12
ENDBRANCH   1  11
TORSDOF 2
