REMARK  7 active torsions:
REMARK  status: ('A' for Active; 'I' for Inactive)
REMARK    1  A    between atoms: O1_1  and  C2_2 
REMARK    2  A    between atoms: C2_2  and  C3_3 
REMARK    3  A    between atoms: C3_3  and  N4_4 
REMARK    4  A    between atoms: N8_8  and  C9_9 
REMARK    5  A    between atoms: C9_9  and  C10_10 
REMARK    6  A    between atoms: C10_10  and  C11_11 
REMARK    7  A    between atoms: C11_11  and  N12_12 
ROOT
ATOM      1  N12 ZIN A   1      -3.882  -1.795  -8.385  0.00  0.00    -0.345 N 
ATOM      2  C13 ZIN A   1      -4.436  -3.061  -8.559  0.00  0.00     0.052 A 
ATOM      3  C14 ZIN A   1      -5.048  -3.678  -7.474  0.00  0.00     0.031 A 
ATOM      4  C15 ZIN A   1      -5.612  -4.933  -7.611  0.00  0.00     0.002 A 
ATOM      5  C16 ZIN A   1      -5.572  -5.583  -8.829  0.00  0.00     0.002 A 
ATOM      6  C17 ZIN A   1      -4.964  -4.979  -9.914  0.00  0.00     0.021 A 
ATOM      7  C18 ZIN A   1      -4.394  -3.719  -9.785  0.00  0.00     0.032 A 
ATOM      8  S19 ZIN A   1      -3.621  -2.975 -11.180  0.00  0.00    -0.086 SA
ATOM      9  C20 ZIN A   1      -2.627  -1.707 -10.469  0.00  0.00     0.032 A 
ATOM     10  C21 ZIN A   1      -1.603  -1.146 -11.220  0.00  0.00     0.023 A 
ATOM     11  C22 ZIN A   1      -0.810  -0.150 -10.680  0.00  0.00     0.025 A 
ATOM     12  C23 ZIN A   1      -1.036   0.288  -9.388  0.00  0.00     0.036 A 
ATOM     13 Cl24 ZIN A   1      -0.039   1.538  -8.710  0.00  0.00    -0.084 Cl
ATOM     14  C25 ZIN A   1      -2.055  -0.266  -8.635  0.00  0.00     0.054 A 
ATOM     15  C26 ZIN A   1      -2.863  -1.265  -9.173  0.00  0.00     0.053 A 
ENDROOT
BRANCH   1  16
ATOM     16  C11 ZIN A   1      -4.412  -0.961  -7.303  0.00  0.00     0.131 C 
BRANCH  16  17
ATOM     17  C10 ZIN A   1      -3.617  -1.223  -6.022  0.00  0.00     0.050 C 
BRANCH  17  18
ATOM     18  C9  ZIN A   1      -4.170  -0.352  -4.892  0.00  0.00     0.274 C 
BRANCH  18  19
ATOM     19  N8  ZIN A   1      -3.408  -0.604  -3.662  0.00  0.00     0.091 N 
ATOM     20  C7  ZIN A   1      -4.053   0.030  -2.504  0.00  0.00     0.300 C 
ATOM     21  C6  ZIN A   1      -3.262  -0.304  -1.237  0.00  0.00     0.265 C 
ATOM     22  N4  ZIN A   1      -1.883   0.182  -1.378  0.00  0.00    -0.066 N 
ATOM     23  H5  ZIN A   1      -1.892   1.179  -1.527  0.00  0.00     0.280 HD
ATOM     24  C28 ZIN A   1      -1.245  -0.479  -2.524  0.00  0.00     0.265 C 
ATOM     25  C27 ZIN A   1      -2.018  -0.145  -3.801  0.00  0.00     0.300 C 
BRANCH  22  26
ATOM     26  C3  ZIN A   1      -1.130  -0.124  -0.154  0.00  0.00     0.260 C 
BRANCH  26  27
ATOM     27  C2  ZIN A   1       0.268   0.491  -0.249  0.00  0.00     0.192 C 
BRANCH  27  28
ATOM     28  O1  ZIN A   1       0.160   1.916  -0.281  0.00  0.00    -0.399 OA
ATOM     29  H29 ZIN A   1       1.010   2.373  -0.342  0.00  0.00     0.209 HD
ENDBRANCH  27  28
ENDBRANCH  26  27
ENDBRANCH  22  26
ENDBRANCH  18  19
ENDBRANCH  17  18
ENDBRANCH  16  17
ENDBRANCH   1  16
TORSDOF 7
