REMARK  1 active torsions:
REMARK  status: ('A' for Active; 'I' for Inactive)
REMARK    1  A    between atoms: C2_2  and  O4_4 
ROOT
ATOM      1  O1  <0> d   1       0.002  -0.004   0.002  0.00  0.00    -0.618 OA
ATOM      2  C2  <0> d   1      -0.015   1.218   0.009  0.00  0.00     0.312 C 
ATOM      3  O3  <0> d   1       1.036   1.843   0.002  0.00  0.00    -0.618 OA
ENDROOT
BRANCH   2   4
ATOM      4  O4  <0> d   1      -1.186   1.873   0.018  0.00  0.00    -0.747 OA
ATOM      5  H5  <0> d   1      -1.990   1.336   0.019  0.00  0.00     0.171 HD
ENDBRANCH   2   4
TORSDOF 1
