REMARK  20 active torsions:
REMARK  status: ('A' for Active; 'I' for Inactive)
REMARK    1  A    between atoms: C2_2  and  O3_3 
REMARK    2  A    between atoms: O3_3  and  C4_4 
REMARK    3  A    between atoms: C7_7  and  C8_8 
REMARK    4  A    between atoms: C8_8  and  C9_9 
REMARK    5  A    between atoms: C9_9  and  C11_10 
REMARK    6  A    between atoms: C9_9  and  N29_28 
REMARK    7  A    between atoms: C11_10  and  N12_11 
REMARK    8  A    between atoms: N12_11  and  C14_13 
REMARK    9  A    between atoms: N12_11  and  C25_24 
REMARK   10  A    between atoms: C14_13  and  C15_14 
REMARK   11  A    between atoms: C15_14  and  N16_15 
REMARK   12  A    between atoms: N16_15  and  C17_16 
REMARK   13  A    between atoms: N16_15  and  C21_20 
REMARK   14  A    between atoms: C17_16  and  C18_17 
REMARK   15  A    between atoms: C21_20  and  C22_21 
REMARK   16  A    between atoms: C25_24  and  C26_25 
REMARK   17  A    between atoms: N29_28  and  C30_29 
REMARK   18  A    between atoms: N29_28  and  C34_33 
REMARK   19  A    between atoms: C30_29  and  C31_30 
REMARK   20  A    between atoms: C34_33  and  C35_34 
ROOT
ATOM      1  C9  ZIN A   1      -0.608  -7.651  -2.619  0.00  0.00     0.254 C 
ENDROOT
BRANCH   1   2
ATOM      2  C8  ZIN A   1       0.683  -8.346  -2.181  0.00  0.00     0.076 C 
BRANCH   2   3
ATOM      3  C7  ZIN A   1       1.846  -7.404  -2.358  0.00  0.00    -0.056 A 
ATOM      4  C6  ZIN A   1       2.133  -6.470  -1.379  0.00  0.00     0.010 A 
ATOM      5  C5  ZIN A   1       3.198  -5.606  -1.538  0.00  0.00     0.037 A 
ATOM      6  C4  ZIN A   1       3.981  -5.675  -2.682  0.00  0.00     0.068 A 
ATOM      7  C39 ZIN A   1       3.687  -6.608  -3.665  0.00  0.00     0.037 A 
ATOM      8  C38 ZIN A   1       2.624  -7.474  -3.498  0.00  0.00     0.010 A 
BRANCH   6   9
ATOM      9  O3  ZIN A   1       5.029  -4.825  -2.841  0.00  0.00    -0.352 OA
BRANCH   9  10
ATOM     10  C2  ZIN A   1       5.273  -3.890  -1.788  0.00  0.00     0.171 C 
ATOM     11  C1  ZIN A   1       6.484  -3.025  -2.143  0.00  0.00     0.034 C 
ENDBRANCH   9  10
ENDBRANCH   6   9
ENDBRANCH   2   3
ENDBRANCH   1   2
BRANCH   1  12
ATOM     12  C11 ZIN A   1      -1.739  -8.678  -2.696  0.00  0.00     0.271 C 
BRANCH  12  13
ATOM     13  N12 ZIN A   1      -2.968  -8.018  -3.157  0.00  0.00    -0.058 N 
ATOM     14  H13 ZIN A   1      -3.256  -7.330  -2.478  0.00  0.00     0.280 HD
BRANCH  13  15
ATOM     15  C14 ZIN A   1      -2.716  -7.360  -4.446  0.00  0.00     0.265 C 
BRANCH  15  16
ATOM     16  C15 ZIN A   1      -3.957  -6.570  -4.866  0.00  0.00     0.301 C 
BRANCH  16  17
ATOM     17  N16 ZIN A   1      -3.705  -5.911  -6.155  0.00  0.00     0.110 N 
BRANCH  17  18
ATOM     18  C17 ZIN A   1      -3.540  -6.900  -7.228  0.00  0.00     0.385 C 
BRANCH  18  19
ATOM     19  C18 ZIN A   1      -4.787  -7.740  -7.333  0.00  0.00     0.202 C 
ATOM     20  O19 ZIN A   1      -5.747  -7.499  -6.621  0.00  0.00    -0.647 OA
ATOM     21  O20 ZIN A   1      -4.836  -8.661  -8.131  0.00  0.00    -0.647 OA
ENDBRANCH  18  19
ENDBRANCH  17  18
BRANCH  17  22
ATOM     22  C21 ZIN A   1      -4.776  -4.958  -6.477  0.00  0.00     0.385 C 
BRANCH  22  23
ATOM     23  C22 ZIN A   1      -4.332  -4.069  -7.610  0.00  0.00     0.202 C 
ATOM     24  O23 ZIN A   1      -3.239  -4.234  -8.123  0.00  0.00    -0.647 OA
ATOM     25  O24 ZIN A   1      -5.067  -3.184  -8.014  0.00  0.00    -0.647 OA
ENDBRANCH  22  23
ENDBRANCH  17  22
ENDBRANCH  16  17
ENDBRANCH  15  16
ENDBRANCH  13  15
BRANCH  13  26
ATOM     26  C25 ZIN A   1      -4.030  -9.021  -3.319  0.00  0.00     0.347 C 
BRANCH  26  27
ATOM     27  C26 ZIN A   1      -4.389  -9.594  -1.972  0.00  0.00     0.199 C 
ATOM     28  O27 ZIN A   1      -3.907  -9.118  -0.959  0.00  0.00    -0.647 OA
ATOM     29  O28 ZIN A   1      -5.162 -10.534  -1.897  0.00  0.00    -0.647 OA
ENDBRANCH  26  27
ENDBRANCH  13  26
ENDBRANCH  12  13
ENDBRANCH   1  12
BRANCH   1  30
ATOM     30  N29 ZIN A   1      -0.958  -6.608  -1.645  0.00  0.00     0.115 N 
BRANCH  30  31
ATOM     31  C30 ZIN A   1      -1.655  -5.492  -2.297  0.00  0.00     0.386 C 
BRANCH  31  32
ATOM     32  C31 ZIN A   1      -0.678  -4.713  -3.140  0.00  0.00     0.202 C 
ATOM     33  O32 ZIN A   1       0.509  -4.992  -3.113  0.00  0.00    -0.647 OA
ATOM     34  O33 ZIN A   1      -1.074  -3.804  -3.850  0.00  0.00    -0.647 OA
ENDBRANCH  31  32
ENDBRANCH  30  31
BRANCH  30  35
ATOM     35  C34 ZIN A   1      -1.761  -7.162  -0.547  0.00  0.00     0.386 C 
BRANCH  35  36
ATOM     36  C35 ZIN A   1      -0.851  -7.800   0.470  0.00  0.00     0.202 C 
ATOM     37  O36 ZIN A   1       0.357  -7.661   0.379  0.00  0.00    -0.647 OA
ATOM     38  O37 ZIN A   1      -1.322  -8.455   1.384  0.00  0.00    -0.647 OA
ENDBRANCH  35  36
ENDBRANCH  30  35
ENDBRANCH   1  30
TORSDOF 20
