REMARK  15 active torsions:
REMARK  status: ('A' for Active; 'I' for Inactive)
REMARK    1  A    between atoms: C2_2  and  C4_4 
REMARK    2  A    between atoms: C4_4  and  N5_5 
REMARK    3  A    between atoms: N5_5  and  C6_6 
REMARK    4  A    between atoms: N5_5  and  S33_30 
REMARK    5  A    between atoms: C6_6  and  C7_7 
REMARK    6  A    between atoms: C7_7  and  O9_8 
REMARK    7  A    between atoms: C7_7  and  C14_13 
REMARK    8  A    between atoms: O9_8  and  P10_9 
REMARK    9  A    between atoms: C14_13  and  C16_14 
REMARK   10  A    between atoms: C14_13  and  N23_21 
REMARK   11  A    between atoms: C16_14  and  C17_15 
REMARK       I    between atoms: N23_21  and  C24_22 
REMARK   12  A    between atoms: C24_22  and  O26_24 
REMARK   13  A    between atoms: O26_24  and  C27_25 
REMARK   14  A    between atoms: S33_30  and  C36_33 
REMARK   15  A    between atoms: C39_36  and  N40_37 
ROOT
ATOM      1  C7  ZIN A   1      -2.855  -1.831   2.512  0.00  0.00     0.177 C 
ENDROOT
BRANCH   1   2
ATOM      2  C6  ZIN A   1      -1.500  -2.069   1.842  0.00  0.00     0.170 C 
BRANCH   2   3
ATOM      3  N5  ZIN A   1      -1.544  -1.577   0.463  0.00  0.00    -0.304 N 
BRANCH   3   4
ATOM      4  C4  ZIN A   1      -1.309  -0.158   0.184  0.00  0.00     0.139 C 
BRANCH   4   5
ATOM      5  C2  ZIN A   1       0.194   0.091   0.037  0.00  0.00    -0.004 C 
ATOM      6  C1  ZIN A   1       0.431   1.538  -0.400  0.00  0.00     0.011 C 
ATOM      7  C3  ZIN A   1       0.885  -0.156   1.380  0.00  0.00     0.011 C 
ENDBRANCH   4   5
ENDBRANCH   3   4
BRANCH   3   8
ATOM      8  S33 ZIN A   1      -1.859  -2.624  -0.780  0.00  0.00     0.260 S 
ATOM      9  O34 ZIN A   1      -2.562  -3.721  -0.213  0.00  0.00    -0.200 OA
ATOM     10  O35 ZIN A   1      -2.374  -1.839  -1.846  0.00  0.00    -0.200 OA
BRANCH   8  11
ATOM     11  C36 ZIN A   1      -0.310  -3.259  -1.333  0.00  0.00     0.079 A 
ATOM     12  C42 ZIN A   1       0.205  -4.410  -0.765  0.00  0.00     0.027 A 
ATOM     13  C41 ZIN A   1       1.416  -4.913  -1.200  0.00  0.00     0.030 A 
ATOM     14  C39 ZIN A   1       2.121  -4.255  -2.200  0.00  0.00     0.025 A 
ATOM     15  C38 ZIN A   1       1.603  -3.096  -2.763  0.00  0.00     0.030 A 
ATOM     16  C37 ZIN A   1       0.389  -2.602  -2.328  0.00  0.00     0.027 A 
BRANCH  14  17
ATOM     17  N40 ZIN A   1       3.349  -4.758  -2.637  0.00  0.00    -0.399 N 
ATOM     18  H70 ZIN A   1       3.840  -4.297  -3.335  0.00  0.00     0.156 HD
ATOM     19  H71 ZIN A   1       3.709  -5.567  -2.243  0.00  0.00     0.156 HD
ENDBRANCH  14  17
ENDBRANCH   8  11
ENDBRANCH   3   8
ENDBRANCH   2   3
ENDBRANCH   1   2
BRANCH   1  20
ATOM     20  O9  ZIN A   1      -3.854  -2.619   1.861  0.00  0.00    -0.274 OA
BRANCH  20  21
ATOM     21  P10 ZIN A   1      -5.145  -1.979   1.142  0.00  0.00     0.422 P 
ATOM     22  O11 ZIN A   1      -5.915  -1.074   2.163  0.00  0.00    -0.617 OA
ATOM     23  O12 ZIN A   1      -4.687  -1.115  -0.081  0.00  0.00    -0.617 OA
ATOM     24  O13 ZIN A   1      -6.089  -3.127   0.646  0.00  0.00    -0.617 OA
ENDBRANCH  20  21
ENDBRANCH   1  20
BRANCH   1  25
ATOM     25  C14 ZIN A   1      -2.773  -2.229   3.987  0.00  0.00     0.122 C 
BRANCH  25  26
ATOM     26  C16 ZIN A   1      -2.527  -3.736   4.095  0.00  0.00     0.066 C 
BRANCH  26  27
ATOM     27  C17 ZIN A   1      -2.323  -4.109   5.540  0.00  0.00    -0.056 A 
ATOM     28  C22 ZIN A   1      -3.407  -4.463   6.322  0.00  0.00     0.007 A 
ATOM     29  C21 ZIN A   1      -3.220  -4.810   7.647  0.00  0.00     0.001 A 
ATOM     30  C20 ZIN A   1      -1.950  -4.793   8.193  0.00  0.00     0.000 A 
ATOM     31  C19 ZIN A   1      -0.867  -4.434   7.413  0.00  0.00     0.001 A 
ATOM     32  C18 ZIN A   1      -1.054  -4.091   6.087  0.00  0.00     0.007 A 
ENDBRANCH  26  27
ENDBRANCH  25  26
BRANCH  25  33
ATOM     33  N23 ZIN A   1      -4.031  -1.890   4.655  0.00  0.00    -0.329 N 
ATOM     34  C24 ZIN A   1      -4.049  -1.667   5.984  0.00  0.00     0.361 C 
ATOM     35  O25 ZIN A   1      -3.022  -1.747   6.628  0.00  0.00    -0.238 OA
ATOM     36  H61 ZIN A   1      -4.851  -1.827   4.142  0.00  0.00     0.165 HD
BRANCH  34  37
ATOM     37  O26 ZIN A   1      -5.206  -1.356   6.599  0.00  0.00    -0.296 OA
BRANCH  37  38
ATOM     38  C27 ZIN A   1      -5.151  -1.129   8.032  0.00  0.00     0.159 C 
ATOM     39  C32 ZIN A   1      -5.486  -2.421   8.807  0.00  0.00     0.200 C 
ATOM     40  O31 ZIN A   1      -6.314  -2.052   9.920  0.00  0.00    -0.389 OA
ATOM     41  C30 ZIN A   1      -6.496  -0.628   9.947  0.00  0.00     0.170 C 
ATOM     42  C29 ZIN A   1      -6.282  -0.165   8.483  0.00  0.00     0.061 C 
ENDBRANCH  37  38
ENDBRANCH  34  37
ENDBRANCH  25  33
ENDBRANCH   1  25
TORSDOF 15
