REMARK  7 active torsions:
REMARK  status: ('A' for Active; 'I' for Inactive)
REMARK    1  A    between atoms: C5_5  and  C6_6 
REMARK    2  A    between atoms: C6_6  and  C7_7 
REMARK    3  A    between atoms: C7_7  and  C8_8 
REMARK    4  A    between atoms: C8_8  and  C10_9 
REMARK    5  A    between atoms: C8_8  and  S16_15 
REMARK    6  A    between atoms: C10_9  and  N11_10 
REMARK    7  A    between atoms: S16_15  and  C17_16 
ROOT
ATOM      1  C8  ZIN A   1       0.061   8.114   1.178  0.00  0.00     0.071 C 
ENDROOT
BRANCH   1   2
ATOM      2  C7  ZIN A   1      -0.055   6.606   0.947  0.00  0.00     0.022 C 
BRANCH   2   3
ATOM      3  C6  ZIN A   1      -0.112   6.323  -0.556  0.00  0.00     0.040 C 
BRANCH   3   4
ATOM      4  C5  ZIN A   1      -0.227   4.838  -0.784  0.00  0.00    -0.058 A 
ATOM      5  C4  ZIN A   1      -1.473   4.245  -0.860  0.00  0.00     0.009 A 
ATOM      6  C3  ZIN A   1      -1.579   2.883  -1.069  0.00  0.00     0.024 A 
ATOM      7  C2  ZIN A   1      -0.438   2.113  -1.203  0.00  0.00     0.034 A 
ATOM      8 Cl1  ZIN A   1      -0.570   0.402  -1.467  0.00  0.00    -0.084 Cl
ATOM      9  C26 ZIN A   1       0.810   2.706  -1.121  0.00  0.00     0.024 A 
ATOM     10  C25 ZIN A   1       0.914   4.069  -0.917  0.00  0.00     0.009 A 
ENDBRANCH   3   4
ENDBRANCH   2   3
ENDBRANCH   1   2
BRANCH   1  11
ATOM     11  C10 ZIN A   1       0.244   8.387   2.672  0.00  0.00     0.144 C 
BRANCH  11  12
ATOM     12  N11 ZIN A   1       1.511   7.808   3.124  0.00  0.00    -0.349 N 
ATOM     13  C15 ZIN A   1       2.731   8.382   3.038  0.00  0.00     0.209 A 
ATOM     14  N14 ZIN A   1       3.614   7.566   3.545  0.00  0.00    -0.255 NA
ATOM     15  C13 ZIN A   1       2.998   6.450   3.961  0.00  0.00     0.135 A 
ATOM     16  C12 ZIN A   1       1.682   6.581   3.707  0.00  0.00     0.111 A 
ENDBRANCH  11  12
ENDBRANCH   1  11
BRANCH   1  17
ATOM     17  S16 ZIN A   1      -1.447   8.934   0.593  0.00  0.00    -0.120 SA
BRANCH  17  18
ATOM     18  C17 ZIN A   1      -1.075  10.643   0.802  0.00  0.00     0.044 A 
ATOM     19  C23 ZIN A   1      -0.350  11.322  -0.171  0.00  0.00     0.052 A 
ATOM     20  C22 ZIN A   1      -0.066  12.665  -0.007  0.00  0.00     0.025 A 
ATOM     21 Cl24 ZIN A   1       0.184  10.489  -1.597  0.00  0.00    -0.083 Cl
ATOM     22  C21 ZIN A   1      -0.491  13.329   1.129  0.00  0.00     0.003 A 
ATOM     23  C20 ZIN A   1      -1.208  12.656   2.101  0.00  0.00     0.025 A 
ATOM     24  C18 ZIN A   1      -1.501  11.315   1.942  0.00  0.00     0.052 A 
ATOM     25 Cl19 ZIN A   1      -2.401  10.471   3.163  0.00  0.00    -0.083 Cl
ENDBRANCH  17  18
ENDBRANCH   1  17
TORSDOF 7
